/*--------------------------------*- C++ -*----------------------------------*\
  =========                 |
  \\      /  F ield         | OpenFOAM: The Open Source CFD Toolbox
   \\    /   O peration     | Website:  https://openfoam.org
    \\  /    A nd           | Version:  6
     \\/     M anipulation  |
\*---------------------------------------------------------------------------*/
FoamFile
{
    version         2.0;
    format          ascii;
    class           dictionary;
    object          couplingProperties;
}
// * * * * * * * * * * * * * * * * * * * * * * * * * * * * * * * * * * * * * //

// sub-models & settings

modelType "A";

couplingInterval 50;

voidFractionModel divided;

locateModel engine;

meshMotionModel noMeshMotion;

regionModel allRegion;

IOModel "off";

dataExchangeModel twoWayMPI;

averagingModel dense;

clockModel standardClock;

smoothingModel off;

probeModel off;

forceModels
(
    particleDeformation
    dSauter
    BeetstraDragPoly
    gradPForce
    viscForce
);

momCoupleModels
(
    implicitCouple
);

energyModels
(
    heatTransferRanzMarshall
);

thermCondModel SyamlalThermCond;

chemistryModels ();

turbulenceModelType "turbulenceProperties";

getParticleTypes true;
getParticleDensities false;
getParticleEffVolFactors true;


// sub-model properties

implicitCoupleProps
{
    velFieldName "U";
    granVelFieldName "Us";
    voidfractionFieldName "voidfraction";
}

gradPForceProps
{
    pFieldName "p";
    densityFieldName "rho";
    voidfractionFieldName "voidfraction";
    velocityFieldName "U";
}

viscForceProps
{
    velocityFieldName "U";
    densityFieldName "rho";
}

BeetstraDragProps
{
    velFieldName "U";
    granVelFieldName "Us";
    densityFieldName "rho";
    voidfractionFieldName "voidfraction";
    phi 1;
    coarseGrainingFactors (4.0 8.0 11.0 24.0);
}

dSauterProps
{
    coarseGrainingFactors (4.0 8.0 11.0 24.0);
}

particleDeformationProps
{
    refFieldName "partTempRef";
    partTypes (3 4);
    defaultDeformCellsName "noOreReg";
// same as Huo et al. (2017)
    lowerBounds (1475 1475);
    upperBounds (1675 1675);
    backgroundVoidage 0.05;
}

heatTransferRanzMarshallProps
{
    partTempName "Temp";
    partHeatFluxName "convectiveHeatFlux";
    calcPartTempField false;
    coarseGrainingFactors (4.0 8.0 11.0 24.0);
    partRefTemp 293;
    calcPartTempField true;
    interpolation false;
    NusseltScalingFactor 0.1;
    initPartTemp true;
    Tmin 293;
    Tmax 3000;
}

SyamlalThermCondProps
{
}

engineProps
{
    treeSearch true;
}

dividedProps
{
    alphaMin 0.1;
    scaleUpVol 1.0;
    weight 1.0;
    verbose;
}

twoWayMPIProps
{
    liggghtsPath "../DEM/in.liggghts_CFDDEM";
    liggghtsEndOfRunPath "../DEM/in.final";
}


// ************************************************************************* //
