/*--------------------------------*- C++ -*----------------------------------*\
  =========                 |
  \\      /  F ield         | OpenFOAM: The Open Source CFD Toolbox
   \\    /   O peration     | Website:  https://openfoam.org
    \\  /    A nd           | Version:  6
     \\/     M anipulation  |
\*---------------------------------------------------------------------------*/
FoamFile
{
    version     2.0;
    format      ascii;
    class       volVectorField;
    object      U;
}
// * * * * * * * * * * * * * * * * * * * * * * * * * * * * * * * * * * * * * //

dimensions      [0 1 -1 0 0 0 0];

internalField   uniform (0 0 0); //velocity in micrometres per second

boundaryField
{
    front
    {
        type            cyclicAMI;
    }
    back
    {
        type            cyclicAMI;
    }
    top
    {
        type            fixedValue;
        value           uniform ( 0.00225 0 0);
    }
    bottom
    {
        type            fixedValue;
        value           uniform (-0.00225 0 0);
    }
    left
    {
        type            cyclicAMI;
    }
    right
    {
        type            cyclicAMI;
    }
}

// ************************************************************************* //
