/*--------------------------------*- C++ -*----------------------------------*\
| =========                 |                                                 |
| \\      /  F ield         | OpenFOAM: The Open Source CFD Toolbox           |
|  \\    /   O peration     | Version:  2.3.x                                 |
|   \\  /    A nd           | Web:      www.OpenFOAM.org                      |
|    \\/     M anipulation  |                                                 |
\*---------------------------------------------------------------------------*/
FoamFile
{
    version     2.0;
    format      ascii;
    class       dictionary;
    location    "system";
    object      controlDict;
}
// * * * * * * * * * * * * * * * * * * * * * * * * * * * * * * * * * * * * * //

application     testTwoFluidRecurrenceTurbulence;

// startFrom       startTime;
startFrom       latestTime;

startTime       0;

//stopAt          writeNow;
stopAt          endTime;

endTime         10;

deltaT          0.001;

//writeControl    adjustableRunTime;
writeControl    runTime;

writeInterval   0.1;

purgeWrite      0;

writeFormat     binary;

writePrecision  6;

writeCompression uncompressed;

timeFormat      general;

timePrecision   6;

runTimeModifiable yes;

adjustTimeStep  no;

maxCo           0.35;

maxDeltaT       1;

libs ("librecurrenceTwoPhaseTurbulenceModels.so");

functions
{
}

// ************************************************************************* //
