/*--------------------------------*- C++ -*----------------------------------*\
| =========                 |                                                 |
| \\      /  F ield         | OpenFOAM: The Open Source CFD Toolbox           |
|  \\    /   O peration     | Version:  2.3.x                                 |
|   \\  /    A nd           | Web:      www.OpenFOAM.org                      |
|    \\/     M anipulation  |                                                 |
\*---------------------------------------------------------------------------*/
FoamFile
{
    version     2.0;
    format      ascii;
    class       dictionary;
    location    "system";
    object      fvSchemes;
}
// * * * * * * * * * * * * * * * * * * * * * * * * * * * * * * * * * * * * * //

ddtSchemes
{
    default         Euler;
}

gradSchemes
{
    default         Gauss linear;
}

divSchemes
{
    default                         none;

    div(phi,alpha.air)              Gauss vanLeer;
    div(phir,alpha.air)             Gauss vanLeer;

    "div\(alphaRhoPhi.*,U.*\)"      Gauss limitedLinearV 1;
    "div\(phi.*,U.*\)"              Gauss limitedLinearV 1;

    "div\(alphaRhoPhi.*,(h|e).*\)"  Gauss limitedLinear 1;
    "div\(alphaRhoPhi.*,K.*\)"      Gauss limitedLinear 1;
    "div\(alphaPhi.*,p\)"           Gauss limitedLinear 1;

    "div\(alphaRhoPhi.*,(k|epsilon).*\)"  Gauss limitedLinear 1;
    "div\(phim,(k|epsilon)m\)"      Gauss limitedLinear 1;
    
    //div(alphaPhi.water,T)			Gauss limitedLinear 1;
    "div\((alphaPhi|alphaRhoPhi).water,T\)"          Gauss upwind;
    
    div(phi.2Rec,T)	Gauss upwind;

    "div\(\(\(\(alpha.**thermo:rho.*\)*nuEff.*\)*dev2\(T\(grad\(U.*\)\)\)\)\)" Gauss linear;
}

laplacianSchemes
{
    default         Gauss linear uncorrected;
}

interpolationSchemes
{
    default         linear;
}

snGradSchemes
{
    default         uncorrected;
}

fluxRequired
{
    default         no;
    p               ;
}


// ************************************************************************* //
