/*--------------------------------*- C++ -*----------------------------------*\
| =========                 |                                                 |
| \\      /  F ield         | OpenFOAM: The Open Source CFD Toolbox           |
|  \\    /   O peration     | Version:  2.3.0                                 |
|   \\  /    A nd           | Web:      www.OpenFOAM.org                      |
|    \\/     M anipulation  |                                                 |
\*---------------------------------------------------------------------------*/
FoamFile
{
    version     2.0;
    format      ascii;
    class       dictionary;
    object      topoSetDict;
}

// * * * * * * * * * * * * * * * * * * * * * * * * * * * * * * * * * * * * * //
tuydia 0.25;
actions
(
 {
    name    c_left;
    type    cellSet;
    action  new;
    source  boxToCell;
    sourceInfo
    {
       box (-6.5 #calc "-0.5*$tuydia" #calc "-0.25*$tuydia")(-5.5 #calc "0.5*$tuydia" #calc "0.75*$tuydia");
    }
  }

 {
    name    inletLeft;
    type    faceSet;
    action  new;
    source  patchToFace;
    sourceInfo
    {
       name "wall";
    }
  }

 {
    name    inletLeft;
    type    faceSet;
    action  subset;
    source  cellToFace;
    sourceInfo
    {
       set c_left;
       option all;
    }
  }

  {
    name    c_right;
    type    cellSet;
    action  new;
    source  boxToCell;
    sourceInfo
    {
       box (5.5 #calc "-0.5*$tuydia" #calc "-0.25*$tuydia")(6.5 #calc "0.5*$tuydia" #calc "0.75*$tuydia");
    }
  }

 {
    name    inletRight;
    type    faceSet;
    action  new;
    source  patchToFace;
    sourceInfo
    {
       name "wall";
    }
  }

 {
    name    inletRight;
    type    faceSet;
    action  subset;
    source  cellToFace;
    sourceInfo
    {
       set c_right;
       option all;
    }
  }

/*
{
    name    medAndUpperRegion;
    type    cellSet;
    action  new;
    source rotatedBoxToCell;
    sourceInfo
    {
       origin   (0.0 -0.6 8.0);
       i        (0.0 1.2 0);
       j        (12.0 0.0 -6.0);
       k        (-12.0 0.0 -6.0);
    }
  }

 {
    name    medAndUpperRegion;
    type    cellSet;
    action  invert;
 }
*/
);

// ************************************************************************* //
