/*--------------------------------*- C++ -*----------------------------------*\
  =========                 |
  \\      /  F ield         | OpenFOAM: The Open Source CFD Toolbox
   \\    /   O peration     | Website:  https://openfoam.org
    \\  /    A nd           | Version:  6
     \\/     M anipulation  |
\*---------------------------------------------------------------------------*/
FoamFile
{
    version     2.0;
    format      ascii;
    class       volScalarField;
    location    "0";
    object      T;
}
// * * * * * * * * * * * * * * * * * * * * * * * * * * * * * * * * * * * * * //

dimensions      [0 0 0 1 0 0 0];

internalField   uniform 293.15;

boundaryField
{
    out
    {
        type            inletOutlet;
        inletValue      uniform 293.15;
        value           uniform 293.15;
    }
    sym1
    {
        type            symmetryPlane;
    }
    sym2
    {
        type            symmetryPlane;
    }
    in
    {
        type            fixedValue;
        value           uniform 293.15;
    }
    cylinder
    {
        type            zeroGradient;
    }
    back
    {
        type            empty;
    }
    front
    {
        type            empty;
    }
}


// ************************************************************************* //
