/*--------------------------------*- C++ -*----------------------------------*\
| =========                 |                                                 |
| \      /  F ield         | OpenFOAM: The Open Source CFD Toolbox           |
|  \    /   O peration     | Version:  2.1.x                                 |
|   \  /    A nd           | Web:      www.OpenFOAM.org                      |
|    \/     M anipulation  |                                                 |
\*---------------------------------------------------------------------------*/
FoamFile
{
	version		2.0;
	format		ascii;
	class		dictionary;
	object		blockMeshDict;
}
// * * * * * * * * * * * * * * * * * * * * * * * * * * * * * * * * * * * * //




convertToMeters 1.0;


vertices
(
	( 0.0 0.0 -1.12 )	 // mmm0 = 0
	( 2.7577164466275357 2.7577164466275352 -1.12 )	 // c0h0 = 1
	( 4.242640687119286 4.242640687119285 -1.12 )	 // o0h0 = 2
	( 2.1410771502600355e-16 3.4966443414554087 -1.12 )	 // c1h0 = 3
	( 3.6739403974420594e-16 6.0 -1.12 )	 // o1h0 = 4
	( -2.7577164466275352 2.7577164466275357 -1.12 )	 // c2h0 = 5
	( -4.242640687119285 4.242640687119286 -1.12 )	 // o2h0 = 6
	( -3.4966443414554087 4.282154300520071e-16 -1.12 )	 // c3h0 = 7
	( -6.0 7.347880794884119e-16 -1.12 )	 // o3h0 = 8
	( -2.757716446627536 -2.7577164466275352 -1.12 )	 // c4h0 = 9
	( -4.242640687119286 -4.242640687119285 -1.12 )	 // o4h0 = 10
	( -6.423231450780106e-16 -3.4966443414554087 -1.12 )	 // c5h0 = 11
	( -1.102182119232618e-15 -6.0 -1.12 )	 // o5h0 = 12
	( 2.757716446627535 -2.757716446627536 -1.12 )	 // c6h0 = 13
	( 4.242640687119284 -4.242640687119286 -1.12 )	 // o6h0 = 14
	( 3.4966443414554087 -8.564308601040142e-16 -1.12 )	 // c7h0 = 15
	( 6.0 -1.4695761589768238e-15 -1.12 )	 // o7h0 = 16
	( 0.0 0.0 0.746 )	 // mmm1 = 17
	( 2.7577164466275357 2.7577164466275352 0.746 )	 // c0h1 = 18
	( 4.242640687119286 4.242640687119285 0.746 )	 // o0h1 = 19
	( 2.1410771502600355e-16 3.4966443414554087 0.746 )	 // c1h1 = 20
	( 3.6739403974420594e-16 6.0 0.746 )	 // o1h1 = 21
	( -2.7577164466275352 2.7577164466275357 0.746 )	 // c2h1 = 22
	( -4.242640687119285 4.242640687119286 0.746 )	 // o2h1 = 23
	( -3.4966443414554087 4.282154300520071e-16 0.746 )	 // c3h1 = 24
	( -6.0 7.347880794884119e-16 0.746 )	 // o3h1 = 25
	( -2.757716446627536 -2.7577164466275352 0.746 )	 // c4h1 = 26
	( -4.242640687119286 -4.242640687119285 0.746 )	 // o4h1 = 27
	( -6.423231450780106e-16 -3.4966443414554087 0.746 )	 // c5h1 = 28
	( -1.102182119232618e-15 -6.0 0.746 )	 // o5h1 = 29
	( 2.757716446627535 -2.757716446627536 0.746 )	 // c6h1 = 30
	( 4.242640687119284 -4.242640687119286 0.746 )	 // o6h1 = 31
	( 3.4966443414554087 -8.564308601040142e-16 0.746 )	 // c7h1 = 32
	( 6.0 -1.4695761589768238e-15 0.746 )	 // o7h1 = 33
	( 0.0 0.0 3.913 )	 // mmm2 = 34
	( 3.3919912293518686 3.391991229351868 3.913 )	 // c0h2 = 35
	( 5.2184480451567214 5.218448045156721 3.913 )	 // o0h2 = 36
	( 2.6335248948198435e-16 4.300872539990152 3.913 )	 // c1h2 = 37
	( 4.518946688853733e-16 7.38 3.913 )	 // o1h2 = 38
	( -3.391991229351868 3.3919912293518686 3.913 )	 // c2h2 = 39
	( -5.218448045156721 5.2184480451567214 3.913 )	 // o2h2 = 40
	( -4.300872539990152 5.267049789639687e-16 3.913 )	 // c3h2 = 41
	( -7.38 9.037893377707467e-16 3.913 )	 // o3h2 = 42
	( -3.391991229351869 -3.391991229351868 3.913 )	 // c4h2 = 43
	( -5.2184480451567214 -5.218448045156721 3.913 )	 // o4h2 = 44
	( -7.900574684459529e-16 -4.300872539990152 3.913 )	 // c5h2 = 45
	( -1.3556840066561198e-15 -7.38 3.913 )	 // o5h2 = 46
	( 3.3919912293518673 -3.391991229351869 3.913 )	 // c6h2 = 47
	( 5.21844804515672 -5.2184480451567214 3.913 )	 // o6h2 = 48
	( 4.300872539990152 -1.0534099579279374e-15 3.913 )	 // c7h2 = 49
	( 7.38 -1.8075786755414934e-15 3.913 )	 // o7h2 = 50
	( 0.0 0.0 6.408 )	 // mmm3 = 51
	( 3.3919912293518686 3.391991229351868 6.408 )	 // c0h3 = 52
	( 5.2184480451567214 5.218448045156721 6.408 )	 // o0h3 = 53
	( 2.6335248948198435e-16 4.300872539990152 6.408 )	 // c1h3 = 54
	( 4.518946688853733e-16 7.38 6.408 )	 // o1h3 = 55
	( -3.391991229351868 3.3919912293518686 6.408 )	 // c2h3 = 56
	( -5.218448045156721 5.2184480451567214 6.408 )	 // o2h3 = 57
	( -4.300872539990152 5.267049789639687e-16 6.408 )	 // c3h3 = 58
	( -7.38 9.037893377707467e-16 6.408 )	 // o3h3 = 59
	( -3.391991229351869 -3.391991229351868 6.408 )	 // c4h3 = 60
	( -5.2184480451567214 -5.218448045156721 6.408 )	 // o4h3 = 61
	( -7.900574684459529e-16 -4.300872539990152 6.408 )	 // c5h3 = 62
	( -1.3556840066561198e-15 -7.38 6.408 )	 // o5h3 = 63
	( 3.3919912293518673 -3.391991229351869 6.408 )	 // c6h3 = 64
	( 5.21844804515672 -5.2184480451567214 6.408 )	 // o6h3 = 65
	( 4.300872539990152 -1.0534099579279374e-15 6.408 )	 // c7h3 = 66
	( 7.38 -1.8075786755414934e-15 6.408 )	 // o7h3 = 67
	( 0.0 0.0 24.035 )	 // mmm4 = 68
	( 2.1579131194860466 2.157913119486046 24.035 )	 // c0h4 = 69
	( 3.3198663376708413 3.3198663376708404 24.035 )	 // o0h4 = 70
	( 1.6753928700784779e-16 2.7361241971888575 24.035 )	 // c1h4 = 71
	( 2.874858360998412e-16 4.695 24.035 )	 // o1h4 = 72
	( -2.157913119486046 2.1579131194860466 24.035 )	 // c2h4 = 73
	( -3.3198663376708404 3.3198663376708413 24.035 )	 // o2h4 = 74
	( -2.7361241971888575 3.3507857401569558e-16 24.035 )	 // c3h4 = 75
	( -4.695 5.749716721996824e-16 24.035 )	 // o3h4 = 76
	( -2.157913119486047 -2.157913119486046 24.035 )	 // c4h4 = 77
	( -3.3198663376708417 -3.3198663376708404 24.035 )	 // o4h4 = 78
	( -5.026178610235433e-16 -2.7361241971888575 24.035 )	 // c5h4 = 79
	( -8.624575082995235e-16 -4.695 24.035 )	 // o5h4 = 80
	( 2.157913119486046 -2.157913119486047 24.035 )	 // c6h4 = 81
	( 3.31986633767084 -3.3198663376708417 24.035 )	 // o6h4 = 82
	( 2.7361241971888575 -6.7015714803139115e-16 24.035 )	 // c7h4 = 83
	( 4.695 -1.1499433443993648e-15 24.035 )	 // o7h4 = 84
	( 0.0 0.0 26.035 )	 // mmm5 = 85
	( 2.1579131194860466 2.157913119486046 26.035 )	 // c0h5 = 86
	( 3.3198663376708413 3.3198663376708404 26.035 )	 // o0h5 = 87
	( 1.6753928700784779e-16 2.7361241971888575 26.035 )	 // c1h5 = 88
	( 2.874858360998412e-16 4.695 26.035 )	 // o1h5 = 89
	( -2.157913119486046 2.1579131194860466 26.035 )	 // c2h5 = 90
	( -3.3198663376708404 3.3198663376708413 26.035 )	 // o2h5 = 91
	( -2.7361241971888575 3.3507857401569558e-16 26.035 )	 // c3h5 = 92
	( -4.695 5.749716721996824e-16 26.035 )	 // o3h5 = 93
	( -2.157913119486047 -2.157913119486046 26.035 )	 // c4h5 = 94
	( -3.3198663376708417 -3.3198663376708404 26.035 )	 // o4h5 = 95
	( -5.026178610235433e-16 -2.7361241971888575 26.035 )	 // c5h5 = 96
	( -8.624575082995235e-16 -4.695 26.035 )	 // o5h5 = 97
	( 2.157913119486046 -2.157913119486047 26.035 )	 // c6h5 = 98
	( 3.31986633767084 -3.3198663376708417 26.035 )	 // o6h5 = 99
	( 2.7361241971888575 -6.7015714803139115e-16 26.035 )	 // c7h5 = 100
	( 4.695 -1.1499433443993648e-15 26.035 )	 // o7h5 = 101
);


blocks
(
    hex ( 0 15 1 3 17 32 18 20 )   ( 12 12 5 ) simpleGrading ( 1 1 1 )  // 0 
    hex ( 1 2 4 3 18 19 21 20 )   ( 11 12 5 ) simpleGrading ( 1 1 1 )  // 1 
    hex ( 3 4 6 5 20 21 23 22 )   ( 11 12 5 ) simpleGrading ( 1 1 1 )  // 2 
    hex ( 0 3 5 7 17 20 22 24 )   ( 12 12 5 ) simpleGrading ( 1 1 1 )  // 3 
    hex ( 5 6 8 7 22 23 25 24 )   ( 11 12 5 ) simpleGrading ( 1 1 1 )  // 4 
    hex ( 7 8 10 9 24 25 27 26 )   ( 11 12 5 ) simpleGrading ( 1 1 1 )  // 5 
    hex ( 0 7 9 11 17 24 26 28 )   ( 12 12 5 ) simpleGrading ( 1 1 1 )  // 6 
    hex ( 9 10 12 11 26 27 29 28 )   ( 11 12 5 ) simpleGrading ( 1 1 1 )  // 7 
    hex ( 11 12 14 13 28 29 31 30 )   ( 11 12 5 ) simpleGrading ( 1 1 1 )  // 8 
    hex ( 0 11 13 15 17 28 30 32 )   ( 12 12 5 ) simpleGrading ( 1 1 1 )  // 9 
    hex ( 13 14 16 15 30 31 33 32 )   ( 11 12 5 ) simpleGrading ( 1 1 1 )  // 10 
    hex ( 15 16 2 1 32 33 19 18 )   ( 11 12 5 ) simpleGrading ( 1 1 1 )  // 11 
    hex ( 17 32 18 20 34 49 35 37 )   ( 12 12 9 ) simpleGrading ( 1 1 1 )  // 12 
    hex ( 18 19 21 20 35 36 38 37 )   ( 11 12 9 ) simpleGrading ( 1 1 1 )  // 13 
    hex ( 20 21 23 22 37 38 40 39 )   ( 11 12 9 ) simpleGrading ( 1 1 1 )  // 14 
    hex ( 17 20 22 24 34 37 39 41 )   ( 12 12 9 ) simpleGrading ( 1 1 1 )  // 15 
    hex ( 22 23 25 24 39 40 42 41 )   ( 11 12 9 ) simpleGrading ( 1 1 1 )  // 16 
    hex ( 24 25 27 26 41 42 44 43 )   ( 11 12 9 ) simpleGrading ( 1 1 1 )  // 17 
    hex ( 17 24 26 28 34 41 43 45 )   ( 12 12 9 ) simpleGrading ( 1 1 1 )  // 18 
    hex ( 26 27 29 28 43 44 46 45 )   ( 11 12 9 ) simpleGrading ( 1 1 1 )  // 19 
    hex ( 28 29 31 30 45 46 48 47 )   ( 11 12 9 ) simpleGrading ( 1 1 1 )  // 20 
    hex ( 17 28 30 32 34 45 47 49 )   ( 12 12 9 ) simpleGrading ( 1 1 1 )  // 21 
    hex ( 30 31 33 32 47 48 50 49 )   ( 11 12 9 ) simpleGrading ( 1 1 1 )  // 22 
    hex ( 32 33 19 18 49 50 36 35 )   ( 11 12 9 ) simpleGrading ( 1 1 1 )  // 23 
    hex ( 34 49 35 37 51 66 52 54 )   ( 12 12 7 ) simpleGrading ( 1 1 1 )  // 24 
    hex ( 35 36 38 37 52 53 55 54 )   ( 11 12 7 ) simpleGrading ( 1 1 1 )  // 25 
    hex ( 37 38 40 39 54 55 57 56 )   ( 11 12 7 ) simpleGrading ( 1 1 1 )  // 26 
    hex ( 34 37 39 41 51 54 56 58 )   ( 12 12 7 ) simpleGrading ( 1 1 1 )  // 27 
    hex ( 39 40 42 41 56 57 59 58 )   ( 11 12 7 ) simpleGrading ( 1 1 1 )  // 28 
    hex ( 41 42 44 43 58 59 61 60 )   ( 11 12 7 ) simpleGrading ( 1 1 1 )  // 29 
    hex ( 34 41 43 45 51 58 60 62 )   ( 12 12 7 ) simpleGrading ( 1 1 1 )  // 30 
    hex ( 43 44 46 45 60 61 63 62 )   ( 11 12 7 ) simpleGrading ( 1 1 1 )  // 31 
    hex ( 45 46 48 47 62 63 65 64 )   ( 11 12 7 ) simpleGrading ( 1 1 1 )  // 32 
    hex ( 34 45 47 49 51 62 64 66 )   ( 12 12 7 ) simpleGrading ( 1 1 1 )  // 33 
    hex ( 47 48 50 49 64 65 67 66 )   ( 11 12 7 ) simpleGrading ( 1 1 1 )  // 34 
    hex ( 49 50 36 35 66 67 53 52 )   ( 11 12 7 ) simpleGrading ( 1 1 1 )  // 35 
    hex ( 51 66 52 54 68 83 69 71 )   ( 12 12 50 ) simpleGrading ( 1 1 1 )  // 36 
    hex ( 52 53 55 54 69 70 72 71 )   ( 11 12 50 ) simpleGrading ( 1 1 1 )  // 37 
    hex ( 54 55 57 56 71 72 74 73 )   ( 11 12 50 ) simpleGrading ( 1 1 1 )  // 38 
    hex ( 51 54 56 58 68 71 73 75 )   ( 12 12 50 ) simpleGrading ( 1 1 1 )  // 39 
    hex ( 56 57 59 58 73 74 76 75 )   ( 11 12 50 ) simpleGrading ( 1 1 1 )  // 40 
    hex ( 58 59 61 60 75 76 78 77 )   ( 11 12 50 ) simpleGrading ( 1 1 1 )  // 41 
    hex ( 51 58 60 62 68 75 77 79 )   ( 12 12 50 ) simpleGrading ( 1 1 1 )  // 42 
    hex ( 60 61 63 62 77 78 80 79 )   ( 11 12 50 ) simpleGrading ( 1 1 1 )  // 43 
    hex ( 62 63 65 64 79 80 82 81 )   ( 11 12 50 ) simpleGrading ( 1 1 1 )  // 44 
    hex ( 51 62 64 66 68 79 81 83 )   ( 12 12 50 ) simpleGrading ( 1 1 1 )  // 45 
    hex ( 64 65 67 66 81 82 84 83 )   ( 11 12 50 ) simpleGrading ( 1 1 1 )  // 46 
    hex ( 66 67 53 52 83 84 70 69 )   ( 11 12 50 ) simpleGrading ( 1 1 1 )  // 47 
    hex ( 68 83 69 71 85 100 86 88 )   ( 12 12 5 ) simpleGrading ( 1 1 1 )  // 48 
    hex ( 69 70 72 71 86 87 89 88 )   ( 11 12 5 ) simpleGrading ( 1 1 1 )  // 49 
    hex ( 71 72 74 73 88 89 91 90 )   ( 11 12 5 ) simpleGrading ( 1 1 1 )  // 50 
    hex ( 68 71 73 75 85 88 90 92 )   ( 12 12 5 ) simpleGrading ( 1 1 1 )  // 51 
    hex ( 73 74 76 75 90 91 93 92 )   ( 11 12 5 ) simpleGrading ( 1 1 1 )  // 52 
    hex ( 75 76 78 77 92 93 95 94 )   ( 11 12 5 ) simpleGrading ( 1 1 1 )  // 53 
    hex ( 68 75 77 79 85 92 94 96 )   ( 12 12 5 ) simpleGrading ( 1 1 1 )  // 54 
    hex ( 77 78 80 79 94 95 97 96 )   ( 11 12 5 ) simpleGrading ( 1 1 1 )  // 55 
    hex ( 79 80 82 81 96 97 99 98 )   ( 11 12 5 ) simpleGrading ( 1 1 1 )  // 56 
    hex ( 68 79 81 83 85 96 98 100 )   ( 12 12 5 ) simpleGrading ( 1 1 1 )  // 57 
    hex ( 81 82 84 83 98 99 101 100 )   ( 11 12 5 ) simpleGrading ( 1 1 1 )  // 58 
    hex ( 83 84 70 69 100 101 87 86 )   ( 11 12 5 ) simpleGrading ( 1 1 1 )  // 59 
);


edges
(
    arc 1 3 ( 1.3353394410267214 3.223794588898418 -1.12 )
    arc 2 4 ( 2.296100594190539 5.54327719506772 -1.12 )
    arc 3 5 ( -1.335339441026721 3.223794588898418 -1.12 )
    arc 4 6 ( -2.2961005941905386 5.54327719506772 -1.12 )
    arc 5 7 ( -3.223794588898418 1.3353394410267216 -1.12 )
    arc 6 8 ( -5.54327719506772 2.2961005941905395 -1.12 )
    arc 7 9 ( -3.2237945888984187 -1.3353394410267192 -1.12 )
    arc 8 10 ( -5.543277195067722 -2.2961005941905355 -1.12 )
    arc 9 11 ( -1.3353394410267203 -3.2237945888984183 -1.12 )
    arc 10 12 ( -2.296100594190537 -5.543277195067721 -1.12 )
    arc 11 13 ( 1.3353394410267219 -3.2237945888984174 -1.12 )
    arc 12 14 ( 2.29610059419054 -5.54327719506772 -1.12 )
    arc 13 15 ( 3.2237945888984183 -1.3353394410267203 -1.12 )
    arc 14 16 ( 5.543277195067721 -2.2961005941905372 -1.12 )
    arc 15 1 ( 3.223794588898419 1.3353394410267188 -1.12 )
    arc 16 2 ( 5.543277195067723 2.2961005941905346 -1.12 )
    arc 18 20 ( 1.3353394410267214 3.223794588898418 0.746 )
    arc 19 21 ( 2.296100594190539 5.54327719506772 0.746 )
    arc 20 22 ( -1.335339441026721 3.223794588898418 0.746 )
    arc 21 23 ( -2.2961005941905386 5.54327719506772 0.746 )
    arc 22 24 ( -3.223794588898418 1.3353394410267216 0.746 )
    arc 23 25 ( -5.54327719506772 2.2961005941905395 0.746 )
    arc 24 26 ( -3.2237945888984187 -1.3353394410267192 0.746 )
    arc 25 27 ( -5.543277195067722 -2.2961005941905355 0.746 )
    arc 26 28 ( -1.3353394410267203 -3.2237945888984183 0.746 )
    arc 27 29 ( -2.296100594190537 -5.543277195067721 0.746 )
    arc 28 30 ( 1.3353394410267219 -3.2237945888984174 0.746 )
    arc 29 31 ( 2.29610059419054 -5.54327719506772 0.746 )
    arc 30 32 ( 3.2237945888984183 -1.3353394410267203 0.746 )
    arc 31 33 ( 5.543277195067721 -2.2961005941905372 0.746 )
    arc 32 18 ( 3.223794588898419 1.3353394410267188 0.746 )
    arc 33 19 ( 5.543277195067723 2.2961005941905346 0.746 )
    arc 35 37 ( 1.642467512462867 3.9652673443450532 3.913 )
    arc 36 38 ( 2.824203730854363 6.818230949933296 3.913 )
    arc 37 39 ( -1.6424675124628665 3.9652673443450532 3.913 )
    arc 38 40 ( -2.824203730854362 6.818230949933296 3.913 )
    arc 39 41 ( -3.9652673443450532 1.6424675124628672 3.913 )
    arc 40 42 ( -6.818230949933296 2.8242037308543635 3.913 )
    arc 41 43 ( -3.965267344345054 -1.6424675124628643 3.913 )
    arc 42 44 ( -6.818230949933298 -2.8242037308543586 3.913 )
    arc 43 45 ( -1.6424675124628654 -3.9652673443450537 3.913 )
    arc 44 46 ( -2.8242037308543604 -6.818230949933297 3.913 )
    arc 45 47 ( 1.6424675124628676 -3.9652673443450523 3.913 )
    arc 46 48 ( 2.8242037308543644 -6.818230949933295 3.913 )
    arc 47 49 ( 3.9652673443450537 -1.6424675124628656 3.913 )
    arc 48 50 ( 6.818230949933297 -2.824203730854361 3.913 )
    arc 49 35 ( 3.9652673443450546 1.6424675124628638 3.913 )
    arc 50 36 ( 6.818230949933299 2.8242037308543577 3.913 )
    arc 52 54 ( 1.642467512462867 3.9652673443450532 6.408 )
    arc 53 55 ( 2.824203730854363 6.818230949933296 6.408 )
    arc 54 56 ( -1.6424675124628665 3.9652673443450532 6.408 )
    arc 55 57 ( -2.824203730854362 6.818230949933296 6.408 )
    arc 56 58 ( -3.9652673443450532 1.6424675124628672 6.408 )
    arc 57 59 ( -6.818230949933296 2.8242037308543635 6.408 )
    arc 58 60 ( -3.965267344345054 -1.6424675124628643 6.408 )
    arc 59 61 ( -6.818230949933298 -2.8242037308543586 6.408 )
    arc 60 62 ( -1.6424675124628654 -3.9652673443450537 6.408 )
    arc 61 63 ( -2.8242037308543604 -6.818230949933297 6.408 )
    arc 62 64 ( 1.6424675124628676 -3.9652673443450523 6.408 )
    arc 63 65 ( 2.8242037308543644 -6.818230949933295 6.408 )
    arc 64 66 ( 3.9652673443450537 -1.6424675124628656 6.408 )
    arc 65 67 ( 6.818230949933297 -2.824203730854361 6.408 )
    arc 66 52 ( 3.9652673443450546 1.6424675124628638 6.408 )
    arc 67 53 ( 6.818230949933299 2.8242037308543577 6.408 )
    arc 69 71 ( 1.0449031126034094 2.5226192658130118 24.035 )
    arc 70 72 ( 1.796698714954097 4.337614405140491 24.035 )
    arc 71 73 ( -1.044903112603409 2.5226192658130118 24.035 )
    arc 72 74 ( -1.7966987149540963 4.337614405140491 24.035 )
    arc 73 75 ( -2.5226192658130118 1.0449031126034094 24.035 )
    arc 74 76 ( -4.337614405140491 1.7966987149540972 24.035 )
    arc 75 77 ( -2.522619265813012 -1.0449031126034076 24.035 )
    arc 76 78 ( -4.337614405140492 -1.796698714954094 24.035 )
    arc 77 79 ( -1.0449031126034085 -2.5226192658130118 24.035 )
    arc 78 80 ( -1.7966987149540954 -4.337614405140492 24.035 )
    arc 79 81 ( 1.0449031126034098 -2.5226192658130113 24.035 )
    arc 80 82 ( 1.7966987149540976 -4.337614405140491 24.035 )
    arc 81 83 ( 2.5226192658130118 -1.0449031126034085 24.035 )
    arc 82 84 ( 4.337614405140492 -1.7966987149540956 24.035 )
    arc 83 69 ( 2.5226192658130127 1.0449031126034074 24.035 )
    arc 84 70 ( 4.337614405140493 1.7966987149540936 24.035 )
    arc 86 88 ( 1.0449031126034094 2.5226192658130118 26.035 )
    arc 87 89 ( 1.796698714954097 4.337614405140491 26.035 )
    arc 88 90 ( -1.044903112603409 2.5226192658130118 26.035 )
    arc 89 91 ( -1.7966987149540963 4.337614405140491 26.035 )
    arc 90 92 ( -2.5226192658130118 1.0449031126034094 26.035 )
    arc 91 93 ( -4.337614405140491 1.7966987149540972 26.035 )
    arc 92 94 ( -2.522619265813012 -1.0449031126034076 26.035 )
    arc 93 95 ( -4.337614405140492 -1.796698714954094 26.035 )
    arc 94 96 ( -1.0449031126034085 -2.5226192658130118 26.035 )
    arc 95 97 ( -1.7966987149540954 -4.337614405140492 26.035 )
    arc 96 98 ( 1.0449031126034098 -2.5226192658130113 26.035 )
    arc 97 99 ( 1.7966987149540976 -4.337614405140491 26.035 )
    arc 98 100 ( 2.5226192658130118 -1.0449031126034085 26.035 )
    arc 99 101 ( 4.337614405140492 -1.7966987149540956 26.035 )
    arc 100 86 ( 2.5226192658130127 1.0449031126034074 26.035 )
    arc 101 87 ( 4.337614405140493 1.7966987149540936 26.035 )
);


boundary
(

bottom
{
  type patch;
  faces
  (
    ( 0 3 1 15 )
    ( 16 15 1 2 )
    ( 2 1 3 4 )
    ( 0 7 5 3 )
    ( 4 3 5 6 )
    ( 6 5 7 8 )
    ( 0 11 9 7 )
    ( 8 7 9 10 )
    ( 10 9 11 12 )
    ( 0 15 13 11 )
    ( 12 11 13 14 )
    ( 14 13 15 16 )
  );
}


top
{
  type patch;
  faces
  (
    ( 85 100 86 88 )
    ( 100 101 87 86 )
    ( 86 87 89 88 )
    ( 85 88 90 92 )
    ( 88 89 91 90 )
    ( 90 91 93 92 )
    ( 85 92 94 96 )
    ( 92 93 95 94 )
    ( 94 95 97 96 )
    ( 85 96 98 100 )
    ( 96 97 99 98 )
    ( 98 99 101 100 )
  );
}


walls
{
  type wall;
  faces
  (
    ( 2 4 21 19 )
    ( 4 6 23 21 )
    ( 6 8 25 23 )
    ( 8 10 27 25 )
    ( 10 12 29 27 )
    ( 12 14 31 29 )
    ( 14 16 33 31 )
    ( 16 2 19 33 )
    ( 19 21 38 36 )
    ( 21 23 40 38 )
    ( 23 25 42 40 )
    ( 25 27 44 42 )
    ( 27 29 46 44 )
    ( 29 31 48 46 )
    ( 31 33 50 48 )
    ( 33 19 36 50 )
    ( 36 38 55 53 )
    ( 38 40 57 55 )
    ( 40 42 59 57 )
    ( 42 44 61 59 )
    ( 44 46 63 61 )
    ( 46 48 65 63 )
    ( 48 50 67 65 )
    ( 50 36 53 67 )
    ( 53 55 72 70 )
    ( 55 57 74 72 )
    ( 57 59 76 74 )
    ( 59 61 78 76 )
    ( 61 63 80 78 )
    ( 63 65 82 80 )
    ( 65 67 84 82 )
    ( 67 53 70 84 )
    ( 70 72 89 87 )
    ( 72 74 91 89 )
    ( 74 76 93 91 )
    ( 76 78 95 93 )
    ( 78 80 97 95 )
    ( 80 82 99 97 )
    ( 82 84 101 99 )
    ( 84 70 87 101 )
  );
}

);


// * * * * * * * * * * * * * * * * * * * * * * * * * * * * * * * * * * * * //
