/*--------------------------------*- C++ -*----------------------------------*\
  =========                 |
  \\      /  F ield         | OpenFOAM: The Open Source CFD Toolbox
   \\    /   O peration     | Website:  https://openfoam.org
    \\  /    A nd           | Version:  6
     \\/     M anipulation  |
\*---------------------------------------------------------------------------*/
FoamFile
{
    version     2.0;
    format      ascii;
    class       dictionary;
    location    "system";
    object      controlDict;
}
// * * * * * * * * * * * * * * * * * * * * * * * * * * * * * * * * * * * * * //

application     potentialFoam;

startFrom       startTime;

startTime       0;

stopAt          endTime;

endTime         50.0;

deltaT          0.00125;

writeControl    timeStep;

writeInterval   4000;

purgeWrite      0;

writeFormat     binary;

writePrecision  6;

writeCompression off;

timeFormat      general;

timePrecision   6;

runTimeModifiable true;

adjustTimeStep no;

functions
{
    fieldAverage1
    {
        type            fieldAverage;
        libs            ("libfieldFunctionObjects.so");
        writeControl    writeTime;
        timeStart       18.0;

        fields
        (
            U
            {
                mean        on;
                prime2Mean  off;
                base        time;
                window	    5.0001;
            }
            Us
            {
                mean        on;
                prime2Mean  off;
                base        time;
                window	    5.0001;
            }
            voidfraction
            {
                mean        on;
                prime2Mean  off;
                base        time;
                window	    5.0001;
            }
            U
            {
                mean        on;
                prime2Mean  off;
                base        time;
                window	    2.0001;
                windowName w1;
            }
            Us
            {
                mean        on;
                prime2Mean  off;
                base        time;
                window	    2.0001;
                windowName w1;
            }
            voidfraction
            {
                mean        on;
                prime2Mean  off;
                base        time;
                window	    2.0001;
                windowName w1;
            }
        );
    }

    fieldOutput
    {
        type writeObjects;
        functionObjectLibs ( "libutilityFunctionObjects.so" );
        exclusiveWriting    true;
        objects ("Us" "UsMean" "voidfraction" "voidfractionMean" "partType" "dSauter" "dSauterMean");
        writeControl        timeStep;
        writeInterval       10000;
    }

    probes1
    {
        type probes;

        functionObjectLibs ("libsampling.so");

        #include "probesDict";
    }

    cellObj1
    {
        type            volFieldValue;
        libs ("libfieldFunctionObjects.so");
        enabled         true;
        writeControl    timeStep;
        writeInterval   40;
        log             true;
        writeFields     false;
        regionType      cellZone;
        name            topReg;
        operation       volAverage;

        fields
        (
            UsMean
        );
    }

    conditionalStop
    {
        type abort;
        libs    ("libutilityFunctionObjects.so");
        action  writeNow;
        file    "ABORT";
    }
}

// ************************************************************************* //
