/*--------------------------------*- C++ -*----------------------------------*\
| =========                 |                                                 |
| \\      /  F ield         | OpenFOAM: The Open Source CFD Toolbox           |
|  \\    /   O peration     | Version:  2.3.0                                 |
|   \\  /    A nd           | Web:      www.OpenFOAM.org                      |
|    \\/     M anipulation  |                                                 |
\*---------------------------------------------------------------------------*/
FoamFile
{
    version     2.0;
    format      ascii;
    class       dictionary;
    location    "constant";
    object      foam.dat;
}
// * * * * * * * * * * * * * * * * * * * * * * * * * * * * * * * * * * * * * //
// Sutherland coefficients not valid must be checked before real cases

CO2
{
    specie
    {
        nMoles          1;
        molWeight       44.01;
    }
    thermodynamics
    {
        Tlow            0;
        Thigh           5000;
        Tcommon         1000;
        highCpCoeffs    ( 3.85746 0.00441437 -2.21481e-06 5.2349e-10 -4.72084e-14 -48759.2 2.27164 );
        lowCpCoeffs     ( 2.35677 0.0089846 -7.12356e-06 2.45919e-09 -1.437e-13 -48372 9.90105 );
    }
    transport
    {
        As              1.67212e-06;
        Ts              170.6;
    }
}

O2
{
    specie
    {
        nMoles          1;
        molWeight       31.9988;
    }
    thermodynamics
    {
        Tlow            0;
        Thigh           5000;
        Tcommon         1000;
        highCpCoeffs    ( 3.28254 0.00148309 -7.57967e-07 2.09471e-10 -2.16718e-14 -1088.46 5.45323 );
        lowCpCoeffs     ( 3.78246 -0.00299673 9.8473e-06 -9.6813e-09 3.24373e-12 -1063.94 3.65768 );
    }
    transport
    {
        As              1.67212e-06;
        Ts              170.672;
    }
}

// added CO - Thermo data from combustion.berkeley.edu/gri-mech/data/species/thermo.dat
CO
{
    specie
    {
        nMoles          1;
        molWeight       28.01;
    }
    thermodynamics
    {
        Tlow            0;
        Thigh           5000;
        Tcommon         1000;
        highCpCoeffs    ( 2.71518  0.00206252   -9.98825E-07    2.30053E-10     -2.03647E-14    -14151.8724     7.81868 );
        lowCpCoeffs     ( 3.57953 -6.10353E-04   1.01681E-06    9.07005E-10     -9.04424E-13    -14344.0860     3.50840 );
    }
    transport
    {
        As              1.67212e-06;
        Ts              170.672;
    }
}




// ************************************************************************* //
