/*--------------------------------*- C++ -*----------------------------------*\
  =========                 |
  \\      /  F ield         | OpenFOAM: The Open Source CFD Toolbox
   \\    /   O peration     | Website:  https://openfoam.org
    \\  /    A nd           | Version:  6
     \\/     M anipulation  |
\*---------------------------------------------------------------------------*/
FoamFile
{
    version     2.0;
    format      ascii;
    class       dictionary;
    object      probesDict;
}
// * * * * * * * * * * * * * * * * * * * * * * * * * * * * * * * * * * * * //

fields
(
    voidfraction
    voidfractionMean
    rho
    p
    Us
    UsMean
    U
    UMean
    T
);

writeControl   timeStep;
writeInterval  400;


// Locations to be probed.
probeLocations
(
    (-5.9 0.0 0.0)
    (-5.5 0.0 0.0)
    (-5.0 0.0 0.0)
    (-4.5 0.0 0.0)
    (-4.0 0.0 0.0)
    (-3.5 0.0 0.0)
    (5.9 0.0 0.0)
    (5.5 0.0 0.0)
    (5.0 0.0 0.0)
    (4.5 0.0 0.0)
    (4.0 0.0 0.0)
    (3.5 0.0 0.0)
    (0 0.0 -1.0)
    (0 0.0 0.0)
    (0 0.0 1.0)
    (0 0.0 2.0)
    (0 0.0 5.0)
    (0 0.0 10.0)
    (0 0.0 15.0)
    (0 0.0 20.0)
    (0 0.0 25.0)
);

// * * * * * * * * * * * * * * * * * * * * * * * * * * * * * * * * * * * * //
