/*--------------------------------*- C++ -*----------------------------------*\
  =========                 |
  \\      /  F ield         | OpenFOAM: The Open Source CFD Toolbox
   \\    /   O peration     | Website:  https://openfoam.org
    \\  /    A nd           | Version:  6
     \\/     M anipulation  |
\*---------------------------------------------------------------------------*/
FoamFile
{
    version     2.0;
    format      ascii;
    class       dictionary;
    location    "system";
    object      setFieldsDict;
}
// * * * * * * * * * * * * * * * * * * * * * * * * * * * * * * * * * * * * * //

defaultFieldValues
(
    volScalarFieldValue partTempRef 300
    volScalarFieldValue partTemp 300
);

regions
(
    cellToCell
    {
        set CZ;
        fieldValues
        (
            volScalarFieldValue partTempRef 1600
            volScalarFieldValue partTemp 1600
        );
    }


    cellToCell
    {
        set belowCZ;
        fieldValues
        (
            volScalarFieldValue partTempRef 2700
            volScalarFieldValue partTemp 2700
        );
    }
);


// ************************************************************************* //
