/*--------------------------------*- C++ -*----------------------------------*\
  =========                 |
  \\      /  F ield         | OpenFOAM: The Open Source CFD Toolbox
   \\    /   O peration     | Website:  https://openfoam.org
    \\  /    A nd           | Version:  6
     \\/     M anipulation  |
\*---------------------------------------------------------------------------*/
FoamFile
{
    version     2.0;
    format      ascii;
    class       dictionary;
    object      topoSetDict;
}
// * * * * * * * * * * * * * * * * * * * * * * * * * * * * * * * * * * * * * //

actions
(
    {
        name    CZ;
        type    cellSet;
        action  new;
        source  nearestToCell;
        sourceInfo
        {
            points
            (
                #include "pointsInCZ"
            );
        }
    }

    {
        name    belowCZ;
        type    cellSet;
        action  new;
        source  nearestToCell;
        sourceInfo
        {
            points
            (
                #include "pointsBelowCZ"
            );
        }
    }
);
