/*--------------------------------*- C++ -*----------------------------------*\
| =========                 |                                                 |
| \\      /  F ield         | OpenFOAM: The Open Source CFD Toolbox           |
|  \\    /   O peration     | Version:  v2012                                 |
|   \\  /    A nd           | Website:  www.openfoam.com                      |
|    \\/     M anipulation  |                                                 |
\*---------------------------------------------------------------------------*/
FoamFile
{
    version     2.0;
    format      ascii;
    class       dictionary;
    object      topoSetDict;
}
// * * * * * * * * * * * * * * * * * * * * * * * * * * * * * * * * * * * * * //

actions
(
    {
        name    CZ;
        type    cellSet;
        action  new;
        source  nearestToCell;
        sourceInfo
        {
            points
            (
                #include "pointsInCZ"
            );
        }
    }

    {
        name    belowCZ;
        type    cellSet;
        action  new;
        source  nearestToCell;
        sourceInfo
        {
            points
            (
                #include "pointsBelowCZ"
            );
        }
    }
);
