/*--------------------------------*- C++ -*----------------------------------*\
  =========                 |
  \\      /  F ield         | OpenFOAM: The Open Source CFD Toolbox
   \\    /   O peration     | Website:  https://openfoam.org
    \\  /    A nd           | Version:  6
     \\/     M anipulation  |
\*---------------------------------------------------------------------------*/
FoamFile
{
    version     2.0;
    format      ascii;
    class       dictionary;
    location    "system";
    object      setFieldsDict;
}
// * * * * * * * * * * * * * * * * * * * * * * * * * * * * * * * * * * * * * //

defaultFieldValues
(
    volScalarFieldValue partTempRef 300
    volScalarFieldValue partTemp 300
);

regions
(
    rotatedBoxToCell
    {
       origin   (0.0 -0.6 8);
       i        (20 0 -10);
       j        (-20 0 -10);
       k        (0 1.2 0);
        fieldValues
        (
            volScalarFieldValue partTempRef 2700
            volScalarFieldValue partTemp 2700
        );
    }
);


// ************************************************************************* //
