/*--------------------------------*- C++ -*----------------------------------*\
| =========                 |                                                 |
| \\      /  F ield         | OpenFOAM: The Open Source CFD Toolbox           |
|  \\    /   O peration     | Version:  2.3.0                                 |
|   \\  /    A nd           | Web:      www.OpenFOAM.org                      |
|    \\/     M anipulation  |                                                 |
\*---------------------------------------------------------------------------*/
FoamFile
{
    version     2.0;
    format      ascii;
    class       dictionary;
    object      topoSetDict;
}

// * * * * * * * * * * * * * * * * * * * * * * * * * * * * * * * * * * * * * //
tuydia 0.25;
actions
(
  {
    name    c_left;
    type    cellSet;
    action  new;
    source  boxToCell;
    sourceInfo
    {
       box (-6.5 #calc "-0.5*$tuydia" #calc "-0.25*$tuydia")(-5.5 #calc "0.5*$tuydia" #calc "0.75*$tuydia");
    }
  }

 {
    name    inletLeft;
    type    faceSet;
    action  new;
    source  patchToFace;
    sourceInfo
    {
       name "wall";
    }
  }

 {
    name    inletLeft;
    type    faceSet;
    action  subset;
    source  cellToFace;
    sourceInfo
    {
       set c_left;
       option all;
    }
  }

  {
    name    c_right;
    type    cellSet;
    action  new;
    source  boxToCell;
    sourceInfo
    {
       box (5.5 #calc "-0.5*$tuydia" #calc "-0.25*$tuydia")(6.5 #calc "0.5*$tuydia" #calc "0.75*$tuydia");
    }
  }

 {
    name    inletRight;
    type    faceSet;
    action  new;
    source  patchToFace;
    sourceInfo
    {
       name "wall";
    }
  }

 {
    name    inletRight;
    type    faceSet;
    action  subset;
    source  cellToFace;
    sourceInfo
    {
       set c_right;
       option all;
    }
  }

{
    name    rw_left;
    type    cellSet;
    action  new;
    source  boxToCell;
    sourceInfo
    {
       box (-6.0 -0.5 -0.5)(-4.5 0.5 0.5);
    }
  }

{
    name    rw_right;
    type    cellSet;
    action  new;
    source  boxToCell;
    sourceInfo
    {
       box (4.5 -0.5 -0.5)(6.0 0.5 0.5);
    }
  }

{
    name    topReg;
    type    cellSet;
    action  new;
    source  boxToCell;
    sourceInfo
    {
       box (-5.0 -1.0 25)(5.0 1.0 26);
    }
}

{
    name    noOreReg;
    type    cellSet;
    action  new;
    source  boxToCell;
    sourceInfo
    {
       box (-8.0 -1.0 -2.0)(8.0 1.0 3.0);
    }
}

);

// ************************************************************************* //
