/*--------------------------------*- C++ -*----------------------------------*\
| =========                 |                                                 |
| \\      /  F ield         | OpenFOAM: The Open Source CFD Toolbox           |
|  \\    /   O peration     | Version:  1.6                                   |
|   \\  /    A nd           | Web:      http://www.OpenFOAM.org               |
|    \\/     M anipulation  |                                                 |
\*---------------------------------------------------------------------------*/
FoamFile
{
    version     2.0;
    format      ascii;
    class       volScalarField;
    object      thDiff;
}
// * * * * * * * * * * * * * * * * * * * * * * * * * * * * * * * * * * * * * //

dimensions      [0 2 -1 0 0 0 0];

internalField   uniform 0.0;

boundaryField
{
    walls
    {
        type            fixedValue;
    //    value           uniform 2.9703e-05;
        value           uniform 6e-05;
    }
    nozzle
    {
        type            fixedValue;
    //    value           uniform 2.9703e-05;
        value           uniform 6e-05;
    }

    
    inlet
    {
        type            fixedValue;
        value           uniform 2.9703e-05;
    }

    outlet
    {
        type            fixedValue;
        value           uniform 2.9703e-05;
    }
}

// ************************************************************************* //


