/*---------------------------------------------------------------------------*\
| =========                 |                                                 |
| \\      /  F ield         | OpenFOAM: The Open Source CFD Toolbox           |
|  \\    /   O peration     | Version:  1.4                                   |
|   \\  /    A nd           | Web:      http://www.openfoam.org               |
|    \\/     M anipulation  |                                                 |
\*---------------------------------------------------------------------------*/


FoamFile
{
    version         2.0;
    format          ascii;

    root            "";
    case            "";
    instance        "";
    local           "";

    class           dictionary;
    object          couplingProperties;
}

// * * * * * * * * * * * * * * * * * * * * * * * * * * * * * * * * * * * * * //

//===========================================================================//
// sub-models & settings

modelType "A"; // A or B

couplingInterval 10;

voidFractionModel divided;

locateModel engine;//turboEngineM2M;//

meshMotionModel noMeshMotion;

regionModel allRegion;

IOModel "off";

dataExchangeModel twoWayMPI;//twoWayM2M;//twoWayFiles;//oneWayVTK;//
//dataExchangeModel twoWayMany2Many;

averagingModel dense;//dilute;//

clockModel standardClock;//off;

smoothingModel off;

probeModel off;

forceModels
(
    dSauter
    BeetstraDragPoly
    gradPForce
    viscForce
    particleDeformation
);

momCoupleModels
(
    implicitCouple
);

energyModels
(
    heatTransferGunn
);

thermCondModel SyamlalThermCond;

chemistryModels ();

turbulenceModelType "turbulenceProperties";

/*liggghtsCommandModels
(
   execute
);
*/

getParticleTypes true;
//getParticleTypeField true;
getParticleDensities false;
getParticleEffVolFactors true;
//===========================================================================//
// sub-model properties

implicitCoupleProps
{
    velFieldName "U";
    granVelFieldName "Us";
    voidfractionFieldName "voidfraction";
}

gradPForceProps
{
    pFieldName "p";
    densityFieldName "rho";
    voidfractionFieldName "voidfraction";
    velocityFieldName "U";
}

viscForceProps
{
    velocityFieldName "U";
    densityFieldName "rho";
}


BeetstraDragProps
{
    velFieldName "U";
    granVelFieldName "Us";
    densityFieldName "rho";
    voidfractionFieldName "voidfraction";
    phi 1;
    coarseGrainingFactors (4.0 10.0);
}

dSauterProps
{
    coarseGrainingFactors (4.0 10.0);
}

particleDeformationProps
{
    refFieldName "partTempRef";
    partType 2;
// same as Huo et al. (2017)
    lowerBound 1480;
    upperBound 1530;
}

heatTransferGunnProps
{
    partTempName "Temp";
    partHeatFluxName "convectiveHeatFlux";
    calcPartTempField false;
    partRefTemp 293;
    interpolation false;
    initPartTemp true;
}

SyamlalThermCondProps
{
}


centreProps
{
    alphaMin 0.10;
}

engineProps
{
    treeSearch true;
}

dividedProps
{
    alphaMin 0.1;
    scaleUpVol 1.0;
    weight 1.0;
    verbose;
}

twoWayMPIProps
{
    maxNumberOfParticles 50000;
    liggghtsPath "../DEM/in.liggghts_CFDDEM_createLayers";
}


// ************************************************************************* //
