/*--------------------------------*- C++ -*----------------------------------*\
| =========                 |                                                 |
| \\      /  F ield         | OpenFOAM: The Open Source CFD Toolbox           |
|  \\    /   O peration     | Version:  4.x                                   |
|   \\  /    A nd           | Web:      www.OpenFOAM.org                      |
|    \\/     M anipulation  |                                                 |
\*---------------------------------------------------------------------------*/
FoamFile
{
    version     2.0;
    format      ascii;
    class       polyBoundaryMesh;
    location    "constant/polyMesh";
    object      boundary;
}
// * * * * * * * * * * * * * * * * * * * * * * * * * * * * * * * * * * * * * //

6
(
    top
    {
        type            wall;
        inGroups        1(wall);
        nFaces          134;
        startFace       3175;
    }
    bottom
    {
        type            wall;
        inGroups        1(wall);
        nFaces          127;
        startFace       3309;
    }
    side-walls
    {
        type            wall;
        inGroups        1(wall);
        nFaces          261;
        startFace       3436;
    }
    inlet
    {
        type            patch;
        nFaces          81;
        startFace       3697;
    }
    outlet
    {
        type            patch;
        nFaces          0;
        startFace       3778;
    }
    procBoundary0to1
    {
        type            processor;
        inGroups        1(processor);
        nFaces          97;
        startFace       3778;
        matchTolerance  0.0001;
        transform       unknown;
        myProcNo        0;
        neighbProcNo    1;
    }
)

// ************************************************************************* //
