/*---------------------------------------------------------------------------*\
| =========                 |                                                 |
| \\      /  F ield         | OpenFOAM: The Open Source CFD Toolbox           |
|  \\    /   O peration     | Version:  1.4                                   |
|   \\  /    A nd           | Web:      http://www.openfoam.org               |
|    \\/     M anipulation  |                                                 |
\*---------------------------------------------------------------------------*/


FoamFile
{
    version         2.0;
    format          ascii;

    root            "";
    case            "";
    instance        "";
    local           "";

    class           dictionary;
    object          recProperties;
}

// * * * * * * * * * * * * * * * * * * * * * * * * * * * * * * * * * * * * * //

//===========================================================================//
// sub-models & settings


recModel standardRecModel;

recNorm sqrDiffNorm;

recPath simpleRandomPath;

recStatAnalysis off;//standardRecStatAnalysis;

volScalarFields
(
    voidfraction
);

volVectorFields
(
    Us
);

surfaceScalarFields
(
);

//verbose;



//===========================================================================//
// sub-model properties

standardRecModelProps
{

}

sqrDiffNormProps
{
  normConstant -1.0;
  fieldType "volScalarField";
  fieldName "voidfraction";
}

simpleRandomPathProps
{

}

noRecStatAnalysis
{

}

// ************************************************************************* //
