/*--------------------------------*- C++ -*----------------------------------*\
| =========                 |                                                 |
| \\      /  F ield         | OpenFOAM: The Open Source CFD Toolbox           |
|  \\    /   O peration     |                                                 |
|   \\  /    A nd           | Copyright (C) 2016 Ehsan Madadi-Kandjani        |
|    \\/     M anipulation  |                                                 |
\*---------------------------------------------------------------------------*/
FoamFile
{
    version     2.0;
    format      ascii;
    class       dictionary;
    object      blockMeshDict;
}
// * * * * * * * * * * * * * * * * * * * * * * * * * * * * * * * * * * * * * //
// General macros to create cylinder mesh











// * * * * * * * * * * * * * * * * * * * * * * * * * * * * * * * * * * * * * //

convertToMeters 1.0;

// Inner square side half


// Inner square side curvature


// cylinder radius


// Height of cylinder


// Base z


// Outlet z


// Number of cells at inner square


// Number of cells between inner square and circle


// Number of cells in the cylinder height


// * * * * * * * * * * * * * * * * * * * * * * * * * * * * * * * * * * * * * //




// 45 degree points angle





// Half of 45 degree points angle

























// Inner square x and y position

// x





// y





// Circle x and y positions

// x





// y





// Inner square x and y position middle curvatures

// x





// y





// Circle x and y positions middle curvatures

// x





// y





// * * * * * * * * * * * * * * * * * * * * * * * * * * * * * * * * * * * * * //

vertices
(
    (0.02 -0.02 0) // Vertex s0b = 0 
    (-0.02 -0.02 0) // Vertex s1b = 1 
    (-0.02 0.02 0) // Vertex s2b = 2 
    (0.02 0.02 0) // Vertex s3b = 3 
    
    (0.0353553390593274 -0.0353553390593274 0) // Vertex r0b = 4 
    (-0.0353553390593274 -0.0353553390593274 0) // Vertex r1b = 5 
    (-0.0353553390593274 0.0353553390593274 0) // Vertex r2b = 6 
    (0.0353553390593274 0.0353553390593274 0) // Vertex r3b = 7 
    
    (0.02 -0.02 0.3) // Vertex s0t = 8 
    (-0.02 -0.02 0.3) // Vertex s1t = 9 
    (-0.02 0.02 0.3) // Vertex s2t = 10 
    (0.02 0.02 0.3) // Vertex s3t = 11 
    
    (0.0353553390593274 -0.0353553390593274 0.3) // Vertex r0t = 12 
    (-0.0353553390593274 -0.0353553390593274 0.3) // Vertex r1t = 13 
    (-0.0353553390593274 0.0353553390593274 0.3) // Vertex r2t = 14 
    (0.0353553390593274 0.0353553390593274 0.3) // Vertex r3t = 15 
);

blocks
(
    //block0
    hex (1 0 3 2 9 8 11 10)
    square
    (12 12 60)
    simpleGrading (1 1 1)
    
    //block1
    hex (0 4 7 3 8 12 15 11)
    innerCircle
    (10 12 60)
    simpleGrading (0.5 1 1)
    
    //block2
    hex (3 7 6 2 11 15 14 10)
    innerCircle
    (10 12 60)
    simpleGrading (0.5 1 1)
    
    //block3
    hex (2 6 5 1 10 14 13 9)
    innerCircle
    (10 12 60)
    simpleGrading (0.5 1 1)
    
    //block4
    hex (1 5 4 0 9 13 12 8)
    innerCircle
    (10 12 60)
    simpleGrading (0.5 1 1)
);

edges
(
    //Circle edges
    arc 7 4 (0.05 0 0)
    arc 4 5 (3.06161699786839e-18 -0.05 0)
    arc 5 6 (-0.05 6.12323399573675e-18 0)
    arc 6 7 (3.06161699786839e-18 0.05 0)
    
    //Circle edges
    arc 15 12 (0.05 0 0.3)
    arc 12 13 (3.06161699786839e-18 -0.05 0.3)
    arc 13 14 (-0.05 6.12323399573675e-18 0.3)
    arc 14 15 (3.06161699786839e-18 0.05 0.3)
    
    arc 3 0 (0.025 0 0)
    arc 0 1 (0 -0.025 0)
    arc 1 2 (-0.025 0 0)
    arc 2 3 (0 0.025 0)
    
    arc 11 8 (0.025 0 0.3)
    arc 8 9 (0 -0.025 0.3)
    arc 9 10 (-0.025 0 0.3)
    arc 10 11 (0 0.025 0.3)
    
);

patches
(
    wall walls
    (
        (4 7 15 12)
        (5 4 12 13)
        (6 5 13 14)
        (7 6 14 15)
    )

    patch bottom
    (
        (3 0 1 2)
        (3 7 4 0)
        (2 6 7 3)
        (1 5 6 2)
        (0 4 5 1)
    )
    
    patch outlet
    (
        (11 10 9 8)
        (11 8 12 15)
        (10 11 15 14)
        (9 10 14 13)
        (8 9 13 12)
    )
);

mergePatchPairs
(
);
