/*---------------------------------------------------------------------------*\
| =========                 |                                                 |
| \\      /  F ield         | OpenFOAM: The Open Source CFD Toolbox           |
|  \\    /   O peration     | Version:  1.4                                   |
|   \\  /    A nd           | Web:      http://www.openfoam.org               |
|    \\/     M anipulation  |                                                 |
\*---------------------------------------------------------------------------*/


FoamFile
{
    version         2.0;
    format          ascii;

    root            "";
    case            "";
    instance        "";
    local           "";

    class           dictionary;
    object          couplingProperties;
}

// * * * * * * * * * * * * * * * * * * * * * * * * * * * * * * * * * * * * * //

//===========================================================================//
// sub-models & settings

modelType B; // A or B

couplingInterval 100;

voidFractionModel divided; // might crash with centre;

locateModel engine;

meshMotionModel noMeshMotion;

regionModel allRegion;

IOModel off;

dataExchangeModel twoWayMPI;//twoWayFiles;//oneWayVTK;//

averagingModel dense;//dilute;//

clockModel off;

smoothingModel constDiffSmoothing;

forceModels
(
    //GidaspowDrag
    DiFeliceDrag
    //KochHillDrag
    //gradPForce
    //viscForce
    Archimedes
    //volWeightedAverage
    //totalMomentumExchange
);

momCoupleModels
(
    implicitCouple
);

turbulenceModelType RASProperties;//LESProperties;//

//===========================================================================//
// sub-model properties

constDiffSmoothingProps
{
    lowerLimit 0.1;
    upperLimit 1e10;
    DT 1e-3;
}

implicitCoupleProps
{
    velFieldName "U";
    granVelFieldName "Us";
    voidfractionFieldName "voidfraction";
}

ArchimedesProps
{
    densityFieldName "rho";
    gravityFieldName "g";
}
gradPForceProps
{
    pFieldName "p";
    densityFieldName "rho";
    voidfractionFieldName "voidfraction";
    velocityFieldName "U";
    interpolation;
}

viscForceProps
{
    velocityFieldName "U";
    densityFieldName "rho";
    interpolation;
}
volWeightedAverageProps
{
    scalarFieldNames
    (
        voidfraction
    );
    vectorFieldNames
    (
    );
    upperThreshold 0.999;
    lowerThreshold 0;
    verbose;
}
totalMomentumExchangeProps
{
    implicitMomExFieldName "Ksl";
    explicitMomExFieldName "none";
    fluidVelFieldName "U";
    granVelFieldName "Us";
    densityFieldName "rho";
}
GidaspowDragProps
{
    velFieldName "U";
    densityFieldName "rho";
}
DiFeliceDragProps
{
    velFieldName "U";
    densityFieldName "rho";
    voidfractionFieldName "voidfraction";
}

KochHillDragProps
{
    velFieldName "U";
    densityFieldName "rho";
}

virtualMassForceProps
{
    velFieldName "U";
    densityFieldName "rho";
}

oneWayVTKProps
{
    couplingFilename "vtk_out%4.4d.vtk";
    maxNumberOfParticles 30000;
}

twoWayFilesProps
{
    maxNumberOfParticles 10100;
}

centreProps
{
    alphaMin 0.10;
}

dividedProps
{
    alphaMin 0.1;
    scaleUpVol 1.0;
}

bigParticleProps
{
    alphaMin 0.05;
    scaleUpVol 10.0;
    maxCellsPerParticle 1000;
}

GaussProps
{
    maxCellsPerParticle 5000;
    alphaMin 0.05;
    scaleUpVol 10.0;
}

engineProps
{
    treeSearch true;
}

twoWayMPIProps
{
    maxNumberOfParticles 10100;
    liggghtsPath "../DEM/in.liggghts_resume";
}
// ************************************************************************* //
