/*--------------------------------*- C++ -*----------------------------------*\
| =========                 |                                                 |
| \      /  F ield         | OpenFOAM: The Open Source CFD Toolbox           |
|  \    /   O peration     | Version:  2.1.x                                 |
|   \  /    A nd           | Web:      www.OpenFOAM.org                      |
|    \/     M anipulation  |                                                 |
\*---------------------------------------------------------------------------*/
FoamFile
{
	version		2.0;
	format		ascii;
	class		dictionary;
	object		probesDict;
}
// * * * * * * * * * * * * * * * * * * * * * * * * * * * * * * * * * * * * //



fields
(
    voidfraction
    voidfractionMean
    rho
    rhoMean
    p
    pMean
    Us
    UsMean
    U
    UMean
    T
    NuFieldMean
    addSource
);

writeControl   timeStep;
writeInterval  20;


// Locations to be probed.
probeLocations
(
	(0.0 0.0 0.03)
        (0.0 0.0 0.06)
        (0.0 0.0 0.09)
        (0.0 0.0 0.395)

);

// * * * * * * * * * * * * * * * * * * * * * * * * * * * * * * * * * * * * //
