/*---------------------------------------------------------------------------*\
| =========                 |                                                 |
| \\      /  F ield         | OpenFOAM: The Open Source CFD Toolbox           |
|  \\    /   O peration     | Version:  1.4                                   |
|   \\  /    A nd           | Web:      http://www.openfoam.org               |
|    \\/     M anipulation  |                                                 |
\*---------------------------------------------------------------------------*/


FoamFile
{
    version         2.0;
    format          ascii;

    root            "";
    case            "";
    instance        "";
    local           "";

    class           dictionary;
    object          couplingProperties;
}

// * * * * * * * * * * * * * * * * * * * * * * * * * * * * * * * * * * * * * //

//===========================================================================//
// sub-models & settings

modelType "A";

couplingInterval 1;

voidFractionModel divided;

locateModel engine;

meshMotionModel noMeshMotion;

regionModel allRegion;

IOModel "off";

dataExchangeModel twoWayMPI;

averagingModel dense;

clockModel standardClock;

smoothingModel off;

probeModel off;

forceModels
(
    freeStreaming
    isotropicFluctuations
    directedDiffusiveRelaxation
    dSauter
    BeetstraDragPoly
    gradPForce
    viscForce
    particleDeformation
);

momCoupleModels
(
    implicitCouple
);

energyModels
(
    heatTransferRanzMarshall
    heatTransferGranConduction
);

thermCondModel SyamlalThermCond;

chemistryModels ();

turbulenceModelType "turbulenceProperties";


getParticleTypes true;
getParticleDensities true;
getParticleEffVolFactors true;

coupleRecFluc true;
coupleRecForce false;
setForceField true;

nEveryFlow 1;
//===========================================================================//
// sub-model properties

implicitCoupleProps
{
    velFieldName "U";
    granVelFieldName "UsRec";
    voidfractionFieldName "voidfractionRec";
}

gradPForceProps
{
    pFieldName "p";
    densityFieldName "rho";
    voidfractionFieldName "voidfractionRec";
    velocityFieldName "U";
}

viscForceProps
{
    velocityFieldName "U";
    densityFieldName "rho";
}


BeetstraDragProps
{
    velFieldName "U";
    granVelFieldName "UsRec";
    densityFieldName "rho";
    voidfractionFieldName "voidfractionRec";
    phi 1;
    coarseGrainingFactors (4.0 6.0 10.0 20.0);
}

dSauterProps
{
    coarseGrainingFactors (4.0 6.0 10.0 20.0);
}

freeStreamingProps
{
    critVoidfraction 1.5;
    // density can be chosen arbitrarily
    particleDensity 667;
    ballisticVelLimit 0.0;
    scalingFactor 102.09885;
    interpolation true;
}

isotropicFluctuationsProps
{
    critVoidfraction 1.1;
    D0 5e-4;
    measureDiff true;
    maxDisplacement 0.05;
    ignoreCellsName "aboveCZ";
}

directedDiffusiveRelaxationProps
{
    critVoidfraction 1.1;
    D0 1e-1;
    measureDiff false;
    maxDisplacement 0.01;
    ignoreCellsName "aboveCZ";
}

particleDeformationProps
{
    refFieldName "partTempRef";
    partTypes (3 4);
    defaultDeformCellsName "noOreReg";
// same as Huo et al. (2017)
    lowerBounds (1475 1475);
    upperBounds (1675 1675);
}

heatTransferRanzMarshallProps
{
    partTempName "Temp";
    partHeatFluxName "convectiveHeatFlux";
    calcPartTempField true;
    partRefTemp 293;
    interpolation false;
    voidfractionFieldName "voidfractionRec";
    coarseGrainingFactors (4.0 6.0 10.0 20.0);
    initPartTemp true;
    Tmin 293;
    Tmax 3000;
    NusseltScalingFactor 0.1;
}

heatTransferGranConductionProps
{
    prescribedVoidfractionFieldName "voidfractionRec";
// data taken from Hou et al. Powder Technology 314 (2017)
    thermalConductivities (1.7 1.7 80.0 80.0);
    calcTotalHeatFlux true;
}

SyamlalThermCondProps
{
    voidfractionFieldName "voidfractionRec";
}


centreProps
{
    alphaMin 0.10;
}

engineProps
{
    treeSearch true;
}

dividedProps
{
    alphaMin -20;
    scaleUpVol 1.0;
    weight 1.0;
    verbose;
}

twoWayMPIProps
{
    liggghtsPath "../DEM/in.liggghts_dataDrivenCFD";
    liggghtsEndOfRunPath "../DEM/in.final";
}


// ************************************************************************* //
