/*--------------------------------*- C++ -*----------------------------------*\
  =========                 |
  \\      /  F ield         | OpenFOAM: The Open Source CFD Toolbox
   \\    /   O peration     | Website:  https://openfoam.org
    \\  /    A nd           | Version:  6
     \\/     M anipulation  |
\*---------------------------------------------------------------------------*/
FoamFile
{
    version     2.0;
    format      ascii;
    class       dictionary;
    location    "constant";
    object      combustionProperties;
}
// * * * * * * * * * * * * * * * * * * * * * * * * * * * * * * * * * * * * * //

// OF5 -> OF6: noCombustion<> -> none (template parameters are no longer required)
//combustionModel   noCombustion<rhoThermoCombustion>;
combustionModel  none; // OF6

active  false;

//noCombustionCoeffs
noneCoeffs
{
}

// ************************************************************************* //
