/*--------------------------------*- C++ -*----------------------------------*\
  =========                 |
  \\      /  F ield         | OpenFOAM: The Open Source CFD Toolbox
   \\    /   O peration     | Website:  https://openfoam.org
    \\  /    A nd           | Version:  6
     \\/     M anipulation  |
\*---------------------------------------------------------------------------*/
FoamFile
{
    version     2.0;
    format      ascii;
    class       dictionary;
    location    "constant";
    object      transportProperties;
}
// * * * * * * * * * * * * * * * * * * * * * * * * * * * * * * * * * * * * * //

transportModel  Newtonian;

nu      nu [ 0 2 -1 0 0 0 0 ]  1.126e-05;

kf      kf [ 1 1 -3 -1 0 0 0 ] 0.0507;          // comes from energy model

Cp      Cp [ 0 2 -2 -1 0 0 0 ] 1118.15;         // comes from energy model

// ************************************************************************* //
