/*---------------------------------------------------------------------------*\
| =========                 |                                                 |
| \\      /  F ield         | OpenFOAM: The Open Source CFD Toolbox           |
|  \\    /   O peration     | Version:  1.4                                   |
|   \\  /    A nd           | Web:      http://www.openfoam.org               |
|    \\/     M anipulation  |                                                 |
\*---------------------------------------------------------------------------*/


FoamFile
{
    version         2.0;
    format          ascii;

    root            "";
    case            "";
    instance        "";
    local           "";

    class           dictionary;
    object          couplingProperties;
}

// * * * * * * * * * * * * * * * * * * * * * * * * * * * * * * * * * * * * * //

//===========================================================================//
// sub-models & settings

modelType "A";

couplingInterval 1;

voidFractionModel divided;

locateModel engine;//turboEngine;//

meshMotionModel noMeshMotion;

regionModel allRegion;

IOModel "off";

dataExchangeModel twoWayMPI;

averagingModel dense;

clockModel standardClock;

smoothingModel off;

probeModel off;

forceModels
(
    freeStreaming
    BeetstraDrag
    gradPForce
    viscForce
);

momCoupleModels
(
    implicitCouple
);

otherForceModels
(
);

energyModels
(
    heatTransferGunn
    reactionHeat
);

thermCondModel SyamlalThermCond;

chemistryModels
(
    species
    diffusionCoefficients
    massTransferCoeff
);

turbulenceModelType "turbulenceProperties";

coupleRecFluc false;
coupleRecForce false;

//===========================================================================//
// sub-model properties

freeStreamingProps
{
    critVoidfraction 1.5;
    // density can be chosen arbitrarily
    particleDensity 667;
    ballisticVelLimit 0.0;
    // operational descent velocity
    scalingFactor 110.04;
    interpolation true;
}


implicitCoupleProps
{
    velFieldName "U";
    granVelFieldName "Us";
    voidfractionFieldName "voidfraction";
}

explicitCoupleProps
{
    fLimit (1e3 1e3 1e3);
}

dSauterProps
{

}
gradPForceProps
{
    pFieldName "p";
    densityFieldName "rho";
    voidfractionFieldName "voidfraction";
    velocityFieldName "U";
}

GidaspowDragProps
{
    verbose false;
    velFieldName "U";
    granVelFieldName "Us";
    voidfractionFieldName "voidfraction";
    interpolation true;
    phi 1;
}

heatTransferGunnProps
{
    partTempName "Temp";
    partHeatFluxName "convectiveHeatFlux";
    calcPartTempField false;
    partRefTemp 293;
    interpolation false;
}

viscForceProps
{
    velocityFieldName "U";
    densityFieldName "rho";
    interpolation;
}

BeetstraDragProps
{
    velFieldName "U";
    granVelFieldName "Us";
    densityFieldName "rho";
    voidfractionFieldName "voidfraction";
}

gravityProps
{
}

SyamlalThermCondProps
{
}

centreProps
{
    alphaMin 0.10;
}

engineProps
{
    treeSearch true;
}

turboEngineProps
{
    treeSearch true;
}

dividedProps
{
    alphaMin 0.25;
    scaleUpVol 1.0;
    weight 1.0; //1.33;
    verbose;
}

constDiffSmoothingProps
{
    verbose;
    lowerLimit 0.25;
    upperLimit 1.0;
    smoothingLength 0.006;
}

twoWayMPIProps
{
    maxNumberOfParticles 50000;
    liggghtsPath "../DEM/in.liggghts_dataDrivenCFD";
}


particleProbeProps
{
        particleIDsToSample "0";
}

speciesProps
{
    ChemistryFile   "$FOAM_CASE/constant/foam.inp";
    Nevery          1;
    verbose         false;
    interpolation   false;
}

diffusionCoefficientsProps
{
    verbose         false;
    interpolation   false;
    ChemistryFile   "$FOAM_CASE/constant/foam.inp";
    diffusantGasNames       (
                                CO CO2
                            );
}

massTransferCoeffProps
{
    verbose         false;
    interpolation   false;
}

reactionHeatProps
{
}

// ************************************************************************* //
