/*--------------------------------*- C++ -*----------------------------------*\
  =========                 |
  \\      /  F ield         | OpenFOAM: The Open Source CFD Toolbox
   \\    /   O peration     | Website:  https://openfoam.org
    \\  /    A nd           | Version:  6
     \\/     M anipulation  |
\*---------------------------------------------------------------------------*/
FoamFile
{
    version     2.0;
    format      ascii;
    class       dictionary;
    location    "constant";
    object      thermophysicalProperties;
}
// * * * * * * * * * * * * * * * * * * * * * * * * * * * * * * * * * * * * * //

thermoType
{
    type            heRhoThermo;
    mixture         reactingMixture;
    transport       sutherland;
    thermo          janaf;
    energy          sensibleInternalEnergy; //sensibleEnthalpy;
    equationOfState perfectGas;
    specie          specie;
}


chemistryReader foamChemistryReader;

foamChemistryThermoFile     "$FOAM_CASE/constant/foam.dat";

foamChemistryFile           "$FOAM_CASE/constant/foam.inp";

inertSpecie     N2;

inertLowerBound 0.2;

// ************************************************************************* //
