/*--------------------------------*- C++ -*----------------------------------*\
| =========                 |                                                 |
| \\      /  F ield         | OpenFOAM: The Open Source CFD Toolbox           |
|  \\    /   O peration     | Version:  2.3.0                                 |
|   \\  /    A nd           | Web:      www.OpenFOAM.org                      |
|    \\/     M anipulation  |                                                 |
\*---------------------------------------------------------------------------*/
FoamFile
{
    version     2.0;
    format      ascii;
    class       dictionary;
    location    "constant";
    object      transportProperties;
}
// * * * * * * * * * * * * * * * * * * * * * * * * * * * * * * * * * * * * * //
transportModel  Newtonian;

// dummy for nu
nu              nu [ 0 2 -1 0 0 0 0 ] 0;

kf		kf [ 1 1 -3 -1 0 0 0 ] 0.021;

Cp		Cp [ 0 2 -2 -1 0 0 0 ] 1500;

Cv		Cv [ 0 2 -2 -1 0 0 0 ] 1310;

molM		molM [1 0 0 0 -1 0 0 ] 0.0421;

// ************************************************************************* //
