/*--------------------------------*- C++ -*----------------------------------*\
  =========                 |
  \\      /  F ield         | OpenFOAM: The Open Source CFD Toolbox
   \\    /   O peration     | Website:  https://openfoam.org
    \\  /    A nd           | Version:  6
     \\/     M anipulation  |
\*---------------------------------------------------------------------------*/
FoamFile
{
    version     2.0;
    format      ascii;
    class       dictionary;
    location    "constant";
    object      fvOptions;
}
// * * * * * * * * * * * * * * * * * * * * * * * * * * * * * * * * * * * * * //
 
momentumSource
{
    type            meanVelocityForce;
    active          yes;
 
    meanVelocityForceCoeffs
    {
        selectionMode   all;
 
        fields          (U);
        Ubar            (0.01 0 0);
        relaxation      0.2;
    }
}
 
 
// ************************************************************************* //
