/*--------------------------------*- C++ -*----------------------------------*\
| =========                 |                                                 |
| \\      /  F ield         | OpenFOAM: The Open Source CFD Toolbox           |
|  \\    /   O peration     | Version:  2.3.0                                 |
|   \\  /    A nd           | Web:      www.OpenFOAM.org                      |
|    \\/     M anipulation  |                                                 |
\*---------------------------------------------------------------------------*/
FoamFile
{
    version     2.0;
    format      ascii;
    class       volScalarField;
    location    "0";
    object      T;
}
// * * * * * * * * * * * * * * * * * * * * * * * * * * * * * * * * * * * * * //

dimensions      [0 0 0 1 0 0 0];

internalField   uniform 1293.15; 

boundaryField
{
    top
    {
        type            fixedValue;
        value           uniform 1293.15;
    }

    bottom
    {
        type            fixedValue;
        value           uniform 1293.15;
    }

    side-walls
    {
        type            fixedValue;
        value           uniform 1293.15;
    }

    inlet
    {
        type            fixedValue;
        value           uniform 1293.15;
    }

    outlet
    {
        type            fixedValue;
        value           uniform 1293.15;
    }
}


// ************************************************************************* //
