/*--------------------------------*- C++ -*----------------------------------*\
  =========                 |
  \\      /  F ield         | OpenFOAM: The Open Source CFD Toolbox
   \\    /   O peration     | Website:  https://openfoam.org
    \\  /    A nd           | Version:  6
     \\/     M anipulation  |
\*---------------------------------------------------------------------------*/
FoamFile
{
    version     2.0;
    format      ascii;
    class       dictionary;
    object      topoSetDict;
}
// * * * * * * * * * * * * * * * * * * * * * * * * * * * * * * * * * * * * * //

actions
(
  {
    name    aboveCZ;
    type    cellSet;
    action  new;
    source fieldToCell;
    sourceInfo
    {
        field       "partTempRef";
        min         1675;
        max         10000;
    }
  }

  {
    name    aboveCZ;
    type    cellSet;
    action  add;
    source  boxToCell;
    sourceInfo
    {
      box (-8 -8 -2) (8 8 1);
    }
  }

  {
    name    aboveCZ;
    type    cellSet;
    action  invert;
  }
);

// ************************************************************************* //
