/*--------------------------------*- C++ -*----------------------------------*\
| =========                 |                                                 |
| \\      /  F ield         | OpenFOAM: The Open Source CFD Toolbox           |
|  \\    /   O peration     | Version:  2.3.0                                 |
|   \\  /    A nd           | Web:      www.OpenFOAM.org                      |
|    \\/     M anipulation  |                                                 |
\*---------------------------------------------------------------------------*/
FoamFile
{
    version     2.0;
    format      ascii;
    class       dictionary;
    location    "constant";
    object      transportProperties;
}
// * * * * * * * * * * * * * * * * * * * * * * * * * * * * * * * * * * * * * //
transportModel  Newtonian;

nu              nu [ 0 2 -1 0 0 0 0 ] 3.5492e-07;

kf		kf [ 1 1 -3 -1 0 0 0 ] 0.026;

Cp		Cp [ 0 2 -2 -1 0 0 0 ] 1005;

Cv		Cv [ 0 2 -2 -1 0 0 0 ] 718;


// ************************************************************************* //
