/*--------------------------------*- C++ -*----------------------------------*\
  =========                 |
  \\      /  F ield         | OpenFOAM: The Open Source CFD Toolbox
   \\    /   O peration     | Website:  https://openfoam.org
    \\  /    A nd           | Version:  6
     \\/     M anipulation  |
\*---------------------------------------------------------------------------*/
FoamFile
{
    version     2.0;
    format      ascii;
    class       dictionary;
    object      topoSetDict;
}
// * * * * * * * * * * * * * * * * * * * * * * * * * * * * * * * * * * * * * //

actions
(
  {
    name    lowerHalf;
    type    cellSet;
    action  new;
    source  boxToCell;
    sourceInfo
    {
      box (-0.055 -0.055 0.0)(0.055 0.055 0.15);
    }
  }

  {
    name    upperHalf;
    type    cellSet;
    action  new;
    source  boxToCell;
    sourceInfo
    {
      box (-0.055 -0.055 0.15)(0.055 0.055 0.3);
    }
  }

  {
    name    plane1;
    type    faceSet;
    action  new;
    source  boxToFace;
    sourceInfo
    {
      box (-0.055 -0.055 0.099)(0.055 0.055 0.101);
    }
  }

  {
    name    plane2;
    type    faceSet;
    action  new;
    source  boxToFace;
    sourceInfo
    {
      box (-0.055 -0.055 0.199)(0.055 0.055 0.201);
    }
  }

  {
    name    inletcells;
    type    cellSet;
    action  new;
    source  cylinderAnnulusToCell;
    sourceInfo
    {
        p1          (0.0 0.0 0.0);
        p2          (0.0 0.0 0.021);
        outerRadius 0.051;
        // optional
        innerRadius 0.0375;

    }
  }

 {
    name    inlet;
    type    faceSet;
    action  new;
    source  cellToFace;
    sourceInfo
    {
      set inletcells;
      option all;
    }
  }

 {
    name    inlet;
    type    faceSet;
    action  subset;
    source  patchToFace;
    sourceInfo
    {
      name "walls";
    }
  }
);

// ************************************************************************* //
