/*--------------------------------*- C++ -*----------------------------------*\
| =========                 |                                                 |
| \\      /  F ield         | OpenFOAM: The Open Source CFD Toolbox           |
|  \\    /   O peration     | Version:  2.3.0                                 |
|   \\  /    A nd           | Web:      www.OpenFOAM.org                      |
|    \\/     M anipulation  |                                                 |
\*---------------------------------------------------------------------------*/
FoamFile
{
    version     2.0;
    format      ascii;
    class       volScalarField;
    location    "0";
    object      epsilon;
}
// * * * * * * * * * * * * * * * * * * * * * * * * * * * * * * * * * * * * * //

dimensions      [0 2 -3 0 0 0 0];

internalField   uniform 0.003;

boundaryField
{
    side-walls
    {
        type            epsilonWallFunction;
        value           uniform 0.003;
    }
    inlet
    {
        type            zeroGradient;
    }
    outlet
    {
        /*type            inletOutlet;
        inletValue      uniform 0.003;
        value           uniform 0.003;*/
        type            zeroGradient;
    }
}


// ************************************************************************* //
