/*--------------------------------*- C++ -*----------------------------------*\
| =========                 |                                                 |
| \\      /  F ield         | OpenFOAM: The Open Source CFD Toolbox           |
|  \\    /   O peration     | Version:  2.3.0                                 |
|   \\  /    A nd           | Web:      www.OpenFOAM.org                      |
|    \\/     M anipulation  |                                                 |
\*---------------------------------------------------------------------------*/
FoamFile
{
    version     2.0;
    format      ascii;
    class       dictionary;
    location    "system";
    object      controlDict;
}
// * * * * * * * * * * * * * * * * * * * * * * * * * * * * * * * * * * * * * //

application     pisoFoam;

startFrom       startTime;

startTime       0;

stopAt          endTime;

endTime         10.0;

deltaT          0.00025;

writeControl    timeStep;

writeInterval   400000;

purgeWrite      0;

writeFormat     ascii;

writePrecision  6;

writeCompression off;

timeFormat      general;

timePrecision   6;

runTimeModifiable true;

libs (
      
     );

functions
{

    fieldOutput
    {
        type writeObjects;
        functionObjectLibs ( "libutilityFunctionObjects.so" );
        exclusiveWriting     true;
        objects ("Us" "UsRec" "voidfraction" "voidfractionRec");
        writeControl timeStep;
        writeInterval       400;
    }

 
 
	probes1
	{
		type probes;

		functionObjectLibs ("libsampling.so");

		#include "probesDict";
	}

/*        temperatureSum
        {
            type patchExpression;
	    writeControl   timeStep;
	    writeInterval  40;
            accumulations (
                sum
            );
            patches (
                outlet 
            );
            expression "phi*T";
            verbose false;
        }
*/

}

// ************************************************************************* //
