// Parametrized test case for a BF geometry


//Run using:
//m4 -P blockMeshDict.m4 > blockMeshDict

//m4 definitions:





//Mathematical constants:


//Geometry

// width of wedge



// height levels







// xlevels








//Grid points (integers!):









//m4_define(rGrading, 0.5)




/*---------------------------------------------------------------------------*\
| =========                 |                                                 |
| \\      /  F ield         | OpenFOAM: The Open Source CFD Toolbox           |
|  \\    /   O peration     | Version:  1.4.1                                 |
|   \\  /    A nd           | Web:      http://www.openfoam.org               |
|    \\/     M anipulation  |                                                 |
\*---------------------------------------------------------------------------*/

FoamFile
{
    version         2.0;
    format          ascii;

    root            "";
    case            "";
    instance        "";
    local           "";

    class           dictionary;
    object          blockMeshDict;
}

// * * * * * * * * * * * * * * * * * * * * * * * * * * * * * * * * * * * * * //

convertToMeters 1;

vertices
(
(-6 0.6 -2) // Vertex V0 = 0 
(0 0.6 -2) // Vertex V1 = 1 
(0 0.6 0.75) // Vertex V2 = 2 
(-6 0.6 0.75) // Vertex V3 = 3 

(-7.4 0.6 3.9) // Vertex V4 = 4 
(0 0.6 3.9) // Vertex V5 = 5 
(0 0.6 6.4) // Vertex V6 = 6 
(-7.4 0.6 6.4) // Vertex V7 = 7 

(-4.7 0.6 24) // Vertex V8 = 8 
(0 0.6 24) // Vertex V9 = 9 
(0 0.6 26) // Vertex V10 = 10 
(-4.7 0.6 26) // Vertex V11 = 11 

// neg. y values
(-6 -0.6 -2) // Vertex V12 = 12 
(0 -0.6 -2) // Vertex V13 = 13 
(0 -0.6 0.75) // Vertex V14 = 14 
(-6 -0.6 0.75) // Vertex V15 = 15 

(-7.4 -0.6 3.9) // Vertex V16 = 16 
(0 -0.6 3.9) // Vertex V17 = 17 
(0 -0.6 6.4) // Vertex V18 = 18 
(-7.4 -0.6 6.4) // Vertex V19 = 19 

(-4.7 -0.6 24) // Vertex V20 = 20 
(0 -0.6 24) // Vertex V21 = 21 
(0 -0.6 26) // Vertex V22 = 22 
(-4.7 -0.6 26) // Vertex V23 = 23 


);

// Defining blocks:
blocks
(
    hex ( 0 1 2 3 12 13 14 15 ) AB
    (32 25 11)
    simpleGrading (1.0 1 1)

    hex ( 3 2 5 4 15 14 17 16) BC
    (32 15 11)
    simpleGrading (1.0 1 1)

    hex ( 4 5 6 7 16 17 18 19) CD
    (32 12 11)
    simpleGrading (1.0 1 1)

    hex ( 7 6 9 8 19 18 21 20 ) EF
    (32 90 11)
    simpleGrading (1.0 1 1)

    hex ( 8 9 10 11 20 21 22 23 ) GH
    (32 10 11)
    simpleGrading (1.0 1 1)
);

// Defining patches:
boundary
(
    bottom
    {
        type patch;
        faces
        (
         (0 1 13 12)
        );
    }
    wall
    {
        type wall;
        faces
        (
         (0 3 15 12)
         (3 4 16 15)
         (4 7 19 16)
         (7 8 20 19)
         (8 11 23 20)
        );
    }
    top
    {
        type patch;
        faces
        (
         (11 10 22 23)
        );
    }
    inner
    { 
        type patch;
        faces
        (
         (0 1 2 3)
         (3 2 5 4)
         (4 5 6 7)
         (7 6 9 8)
         (8 9 10 11)

         (12 13 14 15)
         (15 14 17 16)
         (16 17 18 19)
         (19 18 21 20)
         (20 21 22 23)
        );
    }
);

mergePatchPairs 
(
);

// ************************************************************************* //
