/*--------------------------------*- C++ -*----------------------------------*\
| =========                 |                                                 |
| \\      /  F ield         | OpenFOAM: The Open Source CFD Toolbox           |
|  \\    /   O peration     | Version:  2.3.0                                 |
|   \\  /    A nd           | Web:      www.OpenFOAM.org                      |
|    \\/     M anipulation  |                                                 |
\*---------------------------------------------------------------------------*/
FoamFile
{
    version     2.0;
    format      ascii;
    class       dictionary;
    location    "system";
    object      controlDict;
}
// * * * * * * * * * * * * * * * * * * * * * * * * * * * * * * * * * * * * * //

application     cfdemSolverRhoPimpleChem;

startFrom       startTime;

startTime       0;

stopAt          endTime;

endTime         11000.0;

deltaT          1;

writeControl    runTime;

writeInterval   1000;

purgeWrite      0;

writeFormat     ascii;

writePrecision  10;

writeCompression off;

timeFormat      general;

timePrecision   6;

runTimeModifiable false;

adjustTimeStep  no;

maxCo           0.5;

maxDeltaT       0.1;


// ************************************************************************* //
 libs (
        "libfieldFunctionObjects.so"
     );

functions
{
    moleFrac
    {
        type    rhoReactionThermoMoleFractions;
    }

    probes1
    {
        type probes;

        functionObjectLibs ("libsampling.so");

        #include "probesDict";
    }

    globalMassFrac
    {
        type            volRegion;
        libs ("libfieldFunctionObjects.so");
        writeControl    timeStep;//outputTime;
        writeInterval   1;
        log             true;
        writeFields     false;
        regionType      all;
        name            c0;
        operation       weightedVolAverage;
        weightField     rhoeps;
        fields
        (
            H2
            CO2
            CO
            N2
            H2O
        );
    }

    globalMass
    {
        type            volRegion;
        libs ("libfieldFunctionObjects.so");
        writeControl   timeStep;//outputTime;
        writeInterval   1;
        log             true;
        writeFields     false;
        regionType      all;
        name            c1;
        operation       volIntegrate;
        fields
        (
            rhoeps
            rho
        );
    }
}

// ************************************************************************* //
