/*--------------------------------*- C++ -*----------------------------------*\
| =========                 |                                                 |
| \\      /  F ield         | OpenFOAM: The Open Source CFD Toolbox           |
|  \\    /   O peration     | Version:  1.6                                   |
|   \\  /    A nd           | Web:      www.OpenFOAM.org                      |
|    \\/     M anipulation  |                                                 |
\*---------------------------------------------------------------------------*/
FoamFile
{
    version     2.0;
    format      ascii;
    class       dictionary;
    location    "system";
    object      controlDict;
}
// * * * * * * * * * * * * * * * * * * * * * * * * * * * * * * * * * * * * * //

application     cfdemSolverMultiphase;

startFrom       startTime;

startTime       0;

stopAt          endTime;

endTime         20.0;

deltaT          0.005;

writeControl    adjustableRunTime;

writeInterval   1.0;

purgeWrite      0;

writeFormat     ascii;

writePrecision  6;

writeCompression uncompressed;

timeFormat      general;

timePrecision   6;

runTimeModifiable yes;

adjustTimeStep  no;

maxCo       0.1;
maxAlphaCo	0.1;


libs (
	"libfieldFunctionObjects.so"
     );

functions
{
	#includeFunc flowRatePatch
	#includeFunc patchAverage
}

// ************************************************************************* //
