/*--------------------------------*- C++ -*----------------------------------*\
| =========                 |                                                 |
| \\      /  F ield         | OpenFOAM: The Open Source CFD Toolbox           |
|  \\    /   O peration     | Version:  2.3.0                                 |
|   \\  /    A nd           | Web:      www.OpenFOAM.org                      |
|    \\/     M anipulation  |                                                 |
\*---------------------------------------------------------------------------*/
FoamFile
{
    version     2.0;
    format      ascii;
    class       dictionary;
    location    "system";
    object      fvSchemes;
}
// * * * * * * * * * * * * * * * * * * * * * * * * * * * * * * * * * * * * * //

ddtSchemes
{
    default         Euler;
}

gradSchemes
{
    default         Gauss linear;
    grad(U)         Gauss linear;
    grad(gamma)     Gauss linear;
}

divSchemes
{
    default                                        Gauss linear;
    div(rhoPhi,U)                                  Gauss upwind;
    div(phi,alpha)                                 Gauss vanLeer;
    div(phirb,alpha)                               Gauss interfaceCompression;
    div(phi,T)           			   Gauss limitedLinear 1;
    div(phi,C)           			   Gauss limitedLinear 1;
}

laplacianSchemes
{
    default         Gauss linear corrected;
}

interpolationSchemes
{
    default         linear;
}

snGradSchemes
{
    default         corrected;
}

fluxRequired
{
    default         no;
    pcorr;
    p_rgh;
    "alpha.*";
}


// ************************************************************************* //
