/*--------------------------------*- C++ -*----------------------------------*\
| =========                 |                                                 |
| \\      /  F ield         | OpenFOAM: The Open Source CFD Toolbox           |
|  \\    /   O peration     | Version:  2.3.0                                 |
|   \\  /    A nd           | Web:      www.OpenFOAM.org                      |
|    \\/     M anipulation  |                                                 |
\*---------------------------------------------------------------------------*/
FoamFile
{
    version     2.0;
    format      ascii;
    class       dictionary;
    location    "system";
    object      fvSolution;
}
// * * * * * * * * * * * * * * * * * * * * * * * * * * * * * * * * * * * * * //

solvers
{
    "(p|rho)"
    {
        solver          PCG;
        preconditioner  DIC;
        tolerance       1e-8;//1e-6;
        relTol          0.01;
    }

    "(p|rho)Final"
    {
        $p;
        relTol          0;
    }

    "(U|k|e|epsilon|R|nuTilda|c)"
    {
        solver          smoothSolver;
        smoother        GaussSeidel;
        tolerance       1e-7;//1e-5;
        relTol          0;
    }

    "(U|e|k|nuTilda)Final"
    {
        $U;
        relTol          0;
    }

    T
    {
        solver          PBiCG;
        preconditioner  DILU;
        tolerance       1e-8;
        relTol          0;
    }

    alphaSt
    {
        //solver          smoothSolver;
        //smoother        GaussSeidel;
	solver          PBiCG;
        preconditioner  DILU;
        tolerance       1e-05;
        relTol          0;
    }

    alphaDyn
    {
        //solver          smoothSolver;
        //smoother        GaussSeidel;
	solver          PBiCG;
        preconditioner  DILU;
        tolerance       1e-05;
        relTol          0;
    }

    "(voidfraction|Ksl|UsNext|voidfractionNext|sSmoothField|vSmoothField|fSmooth)"
    {
        solver          PCG;
        preconditioner  DIC;
        tolerance       1e-09;
        relTol          1e-06;
    }
}

PIMPLE
{
    momentumPredictor yes;
    nOuterCorrectors 2;
    nCorrectors     1;
    nNonOrthogonalCorrectors 0;
    rhoMin          rhoMin [ 1 -3 0 0 0 ] 0.5;
    rhoMax          rhoMax [ 1 -3 0 0 0 ] 2.0;
}

PISO
{
    nCorrectors     4;
    nNonOrthogonalCorrectors 1;
    pRefCell        0;
    pRefValue       0;
}

relaxationFactors
{
    fields
    {
    }
    equations
    {
        ".*"  1;
    }
}


// ************************************************************************* //
